Version,9.0;
!-   ===========  ALL OBJECTS IN CLASS: SIMULATIONCONTROL ===========

  SimulationControl,
    Yes,                     !- Do Zone Sizing Calculation
    Yes,                     !- Do System Sizing Calculation
    Yes,                     !- Do Plant Sizing Calculation
    No,         !- Run Simulation for Sizing Periods
    YES;                      !- Run Simulation for Weather File Run Periods

!-   ===========  ALL OBJECTS IN CLASS: BUILDING ===========

  Building,
    OfficeSmall,            !- Name
{%- if (Orientation == "North" and (ZoneType == "ExerciseCenter" or ZoneType =="Office")) %}
    0.0000,                  !- North Axis {deg}
{% elif (Orientation == "North" and (ZoneType == "LobbyLounge" or ZoneType =="Restroom" or ZoneType =="Meeting")) %}
    180.00,
{% elif (Orientation == "East" and (ZoneType == "ExerciseCenter" or ZoneType =="Office")) %}
    90.00,
{% elif (Orientation == "East" and (ZoneType == "LobbyLounge" or ZoneType =="Restroom" or ZoneType =="Meeting")) %}
    -90.00,
{% elif (Orientation == "South" and (ZoneType == "ExerciseCenter" or ZoneType =="Office")) %}
    180.00,
{% elif (Orientation == "South" and (ZoneType == "LobbyLounge" or ZoneType =="Restroom" or ZoneType =="Meeting")) %}
    0.00,
{% elif (Orientation == "West" and (ZoneType == "ExerciseCenter" or ZoneType =="Office")) %}
    -90.00,
{% else %}
    90.00,
{%- endif}
    City,                    !- Terrain
    0.0400,                  !- Loads Convergence Tolerance Value
    0.2000,                  !- Temperature Convergence Tolerance Value {deltaC}
    FullInteriorAndExterior, !- Solar Distribution
    25,                      !- Maximum Number of Warmup Days
    6;                       !- Minimum Number of Warmup Days

!-   ===========  ALL OBJECTS IN CLASS: SHADOWCALCULATION ===========

  ShadowCalculation,
    AverageOverDaysInFrequency,  !- Calculation Method
    30,                      !- Calculation Frequency
    15000;                   !- Maximum Figures in Shadow Overlap Calculations

!-   ===========  ALL OBJECTS IN CLASS: SURFACECONVECTIONALGORITHM:INSIDE ===========

  SurfaceConvectionAlgorithm:Inside,TARP;

!-   ===========  ALL OBJECTS IN CLASS: SURFACECONVECTIONALGORITHM:OUTSIDE ===========

  SurfaceConvectionAlgorithm:Outside,TARP;

!-   ===========  ALL OBJECTS IN CLASS: HEATBALANCEALGORITHM ===========

  HeatBalanceAlgorithm,ConductionTransferFunction,200.0000;

!-   ===========  ALL OBJECTS IN CLASS: TIMESTEP ===========

  Timestep,6;

!-   ===========  ALL OBJECTS IN CLASS: CONVERGENCELIMITS ===========

  ConvergenceLimits,
    1,                       !- Minimum System Timestep {minutes}
    20;                      !- Maximum HVAC Iterations

!-   ===========  ALL OBJECTS IN CLASS: RUNPERIOD ===========

  RunPeriod,
    ,                        !- Name
    1,                       !- Begin Month
    1,                       !- Begin Day of Month
    ,                        !- Begin Year
    12,                      !- End Month
    31,                      !- End Day of Month
    ,                        !- End Year
    Sunday,                  !- Day of Week for Start Day
    No,                      !- Use Weather File Holidays and Special Days
    No,                      !- Use Weather File Daylight Saving Period
    No,                     !- Apply Weekend Holiday Rule
    Yes,                     !- Use Weather File Rain Indicators
    Yes;                     !- Use Weather File Snow Indicators

!-   ===========  ALL OBJECTS IN CLASS: RUNPERIODCONTROL:SPECIALDAYS ===========

  RunPeriodControl:SpecialDays,
    New Years Day,           !- Name
    January 1,               !- Start Date
    1,                       !- Duration {days}
    Holiday;                 !- Special Day Type

  RunPeriodControl:SpecialDays,
    Veterans Day,            !- Name
    November 11,             !- Start Date
    1,                       !- Duration {days}
    Holiday;                 !- Special Day Type

  RunPeriodControl:SpecialDays,
    Christmas,               !- Name
    December 25,             !- Start Date
    1,                       !- Duration {days}
    Holiday;                 !- Special Day Type

  RunPeriodControl:SpecialDays,
    Independence Day,        !- Name
    July 4,                  !- Start Date
    1,                       !- Duration {days}
    Holiday;                 !- Special Day Type

  RunPeriodControl:SpecialDays,
    MLK Day,                 !- Name
    3rd Monday in January,   !- Start Date
    1,                       !- Duration {days}
    Holiday;                 !- Special Day Type

  RunPeriodControl:SpecialDays,
    Presidents Day,          !- Name
    3rd Monday in February,  !- Start Date
    1,                       !- Duration {days}
    Holiday;                 !- Special Day Type

  RunPeriodControl:SpecialDays,
    Memorial Day,            !- Name
    Last Monday in May,      !- Start Date
    1,                       !- Duration {days}
    Holiday;                 !- Special Day Type

  RunPeriodControl:SpecialDays,
    Labor Day,               !- Name
    1st Monday in September, !- Start Date
    1,                       !- Duration {days}
    Holiday;                 !- Special Day Type

  RunPeriodControl:SpecialDays,
    Columbus Day,            !- Name
    2nd Monday in October,   !- Start Date
    1,                       !- Duration {days}
    Holiday;                 !- Special Day Type

  RunPeriodControl:SpecialDays,
    Thanksgiving,            !- Name
    4th Thursday in November,!- Start Date
    1,                       !- Duration {days}
    Holiday;                 !- Special Day Type

!-   ===========  ALL OBJECTS IN CLASS: RUNPERIODCONTROL:DAYLIGHTSAVINGTIME ===========

  RunPeriodControl:DaylightSavingTime,
    2nd Sunday in March,     !- Start Date
    1st Sunday in November;  !- End Date

!-   ===========  ALL OBJECTS IN CLASS: LOCATION ===========

{% include "climates" %}

!-   ===========  ALL OBJECTS IN CLASS: MATERIAL:REGULAR-R ===========

  Material:NoMass,
    Opaque Door panel_con,   !- Name
    MediumRough,             !- Roughness
    0.251572327,  !- Thermal Resistance {m2-K/W}
    0.9,                     !- Thermal Absorptance
    0.7,                     !- Solar Absorptance
    0.7;                     !- Visible Absorptance


!-   ===========  ALL OBJECTS IN CLASS: CONSTRUCTION ===========

  Construction,
    Swinging Door_con,       !- Name
    Opaque Door panel_con;   !- Outside Layer

!-   ===========  ALL OBJECTS IN CLASS: SCHEDULETYPELIMITS ===========

  ScheduleTypeLimits,
    Any Number;              !- Name

  ScheduleTypeLimits,
    Fraction,                !- Name
    0.0,                     !- Lower Limit Value
    1.0,                     !- Upper Limit Value
    CONTINUOUS;              !- Numeric Type

  ScheduleTypeLimits,
    Temperature,             !- Name
    -60,                     !- Lower Limit Value
    200,                     !- Upper Limit Value
    CONTINUOUS;              !- Numeric Type

  ScheduleTypeLimits,
    On/Off,                  !- Name
    0,                       !- Lower Limit Value
    1,                       !- Upper Limit Value
    DISCRETE;                !- Numeric Type

  ScheduleTypeLimits,
    Control Type,            !- Name
    0,                       !- Lower Limit Value
    4,                       !- Upper Limit Value
    DISCRETE;                !- Numeric Type

  ScheduleTypeLimits,
    Humidity,                !- Name
    10,                      !- Lower Limit Value
    90,                      !- Upper Limit Value
    CONTINUOUS;              !- Numeric Type

  ScheduleTypeLimits,
    Number;                  !- Name

!-   ===========  ALL OBJECTS IN CLASS: SCHEDULE:COMPACT ===========

Schedule:Compact,
    ALWAYS_ON,               !- Name
    Fraction,                !- Schedule Type Limits Name
    Through: 12/31,          !- Field 1
    For: AllDays,            !- Field 2
    Until: 24:00,            !- Field 3
    1.0;                     !- Field 

Schedule:Compact,
    ALWAYS_OFF,              !- Name
    Fraction,                !- Schedule Type Limits Name
    Through: 12/31,          !- Field 1
    For: AllDays,            !- Field 2
    Until: 24:00,            !- Field 3
    0.0;                     !- Field 4

Schedule:Compact,
    MinOA_Sched,             !- Name
    fraction,                !- Schedule Type Limits Name
    Through: 12/31,          !- Field 1
    For: AllDays,            !- Field 2
    Until: 24:00,            !- Field 3
    1.0;                     !- Field 4


Schedule:Compact,
    FanModeSchedule,         !- Name
    Fraction,                !- Schedule Type Limits Name
    Through: 12/31,          !- Field 1
    For: AllDays,            !- Field 2
    Until: 7:00,             !- Field 3
    0.0,                     !- Field 4
    Until: 17:00,            !- Field 5
    1.0,                     !- Field 6
    Until: 24:00,            !- Field 7
    0.0;                     !- Field 8

{% include "HVACOperationSchd" %}

{% include "HTGSETP_SCH_NO_OPTIMUM" %}

{% include "CLGSETP_SCH_NO_OPTIMUM" %}

{% include "MinOAFraction" %}

 Schedule:Compact,
    Exterior_Lgt_ALWAYS_ON,  !- Name
    Fraction,                !- Schedule Type Limits Name
    Through: 12/31,          !- Field 1
    For: AllDays,            !- Field 2
    Until: 24:00,1;          !- Field 3

  Schedule:Compact,
    AlwaysOn,                !- Name
    On/Off,                  !- Schedule Type Limits Name
    Through: 12/31,          !- Field 1
    For: AllDays,            !- Field 2
    Until: 24:00,1;          !- Field 3

  Schedule:Compact,
    AlwaysOff,               !- Name
    On/Off,                  !- Schedule Type Limits Name
    Through: 12/31,          !- Field 1
    For: AllDays,            !- Field 2
    Until: 24:00,0;          !- Field 3

  Schedule:Compact,
    COMPACT HVAC-ALWAYS 1,   !- Name
    COMPACT HVAC Any Number, !- Schedule Type Limits Name
    Through: 12/31,          !- Field 1
    For: AllDays,            !- Field 2
    Until: 24:00,1;          !- Field 3



  Schedule:Compact,
    Office_Fan_Sch,   !-Name
    Fraction,   !-Schedule Type Limits Name
    Through: 12/31,
    For: Weekdays,
    Until: 01:00, 1,
    Until: 02:00, 1,
    Until: 03:00, 1,
    Until: 04:00, 1,
    Until: 05:00, 1,
    Until: 06:00, 1,
    Until: 07:00, 1,
    Until: 08:00, 1,
    Until: 09:00, 1,
    Until: 10:00, 1,
    Until: 11:00, 1,
    Until: 12:00, 1,
    Until: 13:00, 0,
    Until: 14:00, 1,
    Until: 15:00, 0,
    Until: 16:00, 1,
    Until: 17:00, 1,
    Until: 18:00, 1,
    Until: 19:00, 1,
    Until: 20:00, 1,
    Until: 21:00, 1,
    Until: 22:00, 1,
    Until: 23:00, 1,
    Until: 24:00, 1,
    For: Saturday Sunday Holidays,
    Until: 01:00, 1,
    Until: 02:00, 1,
    Until: 03:00, 1,
    Until: 04:00, 1,
    Until: 05:00, 1,
    Until: 06:00, 1,
    Until: 07:00, 1,
    Until: 08:00, 1,
    Until: 09:00, 1,
    Until: 10:00, 1,
    Until: 11:00, 1,
    Until: 12:00, 0,
    Until: 13:00, 1,
    Until: 14:00, 1,
    Until: 15:00, 0,
    Until: 16:00, 1,
    Until: 17:00, 1,
    Until: 18:00, 1,
    Until: 19:00, 1,
    Until: 20:00, 1,
    Until: 21:00, 1,
    Until: 22:00, 1,
    Until: 23:00, 1,
    Until: 24:00, 1,
    For: AllOtherDays,
    Until: 24:00,
    1;
  Schedule:Compact,
    COMPACT HVAC-ALWAYS 4,   !- Name
    COMPACT HVAC Any Number, !- Schedule Type Limits Name
    Through: 12/31,          !- Field 1
    For: AllDays,            !- Field 2
    Until: 24:00,4;          !- Field 3

  Schedule:Compact,
    COMPACT HVAC-ALWAYS 0,   !- Name
    COMPACT HVAC Any Number, !- Schedule Type Limits Name
    Through: 12/31,          !- Field 1
    For: AllDays,            !- Field 2
    Until: 24:00,0;          !- Field 3

  Schedule:Compact,
    GuestRoom_Occ_Sch,       !- Name
    Fraction,                !- Schedule Type Limits Name
    Through: 12/31,          !- Field 1
    For: Weekdays,           !- Field 2
    Until: 06:00,1.0,        !- Field 3
    Until: 07:00,0.77,       !- Field 5
    Until: 09:00,0.43,       !- Field 7
    Until: 15:00,0.2,        !- Field 9
    Until: 16:00,0.31,       !- Field 11
    Until: 19:00,0.54,       !- Field 13
    Until: 21:00,0.77,       !- Field 15
    Until: 22:00,0.89,       !- Field 17
    Until: 24:00,1.0,        !- Field 19
    For: Saturday Sunday Holidays, !- Field 21
    Until: 06:00,1.0,        !- Field 22
    Until: 07:00,0.77,       !- Field 24
    Until: 09:00,0.53,       !- Field 26
    Until: 17:00,0.3,        !- Field 28
    Until: 18:00,0.53,       !- Field 30
    Until: 19:00,0.54,       !- Field 32
    Until: 21:00,0.65,       !- Field 34
    Until: 24:00,0.77,       !- Field 36
    For: WinterDesignDay,    !- Field 38
    Until: 24:00,0,          !- Field 39
    For: SummerDesignDay CustomDay1 CustomDay2, !- Field 41
    Until: 24:00,1.0;        !- Field 42

  Schedule:Compact,
    Lobby_Occ_Sch,           !- Name
    Fraction,                !- Schedule Type Limits Name
    Through: 12/31,          !- Field 1
    For: Weekdays,           !- Field 2
    Until: 05:00,0.1,        !- Field 3
    Until: 06:00,0.3,        !- Field 5
    Until: 10:00,0.7,        !- Field 7
    Until: 16:00,0.2,        !- Field 9
    Until: 18:00,0.4,        !- Field 11
    Until: 22:00,0.2,        !- Field 13
    Until: 24:00,0.1,        !- Field 15
    For: Saturday Sunday Holidays, !- Field 17
    Until: 06:00,0.1,        !- Field 18
    Until: 07:00,0.3,        !- Field 20
    Until: 10:00,0.7,        !- Field 22
    Until: 22:00,0.2,        !- Field 24
    Until: 24:00,0.1,        !- Field 26
    For: WinterDesignDay,    !- Field 28
    Until: 24:00,0,          !- Field 29
    For: SummerDesignDay CustomDay1 CustomDay2, !- Field 31
    Until: 24:00,1.0;        !- Field 32

  Schedule:Compact,
    Office_Occ_Sch,          !- Name
    Fraction,                !- Schedule Type Limits Name
    Through: 12/31,          !- Field 1
    For: Weekdays,           !- Field 2
    Until: 06:00,0.2,        !- Field 3
    Until: 07:00,0.3,        !- Field 5
    Until: 08:00,0.4,        !- Field 7
    Until: 12:00,1.0,        !- Field 9
    Until: 13:00,0.5,        !- Field 11
    Until: 17:00,1.0,        !- Field 13
    Until: 18:00,0.4,        !- Field 15
    Until: 19:00,0.3,        !- Field 17
    Until: 24:00,0.2,        !- Field 19
    For: Saturday Sunday Holidays, !- Field 21
    Until: 07:00,0.2,        !- Field 22
    Until: 08:00,0.3,        !- Field 24
    Until: 17:00,0.5,        !- Field 26
    Until: 18:00,0.3,        !- Field 28
    Until: 24:00,0.2,        !- Field 30
    For: WinterDesignDay,    !- Field 32
    Until: 24:00,0,          !- Field 33
    For: SummerDesignDay CustomDay1 CustomDay2, !- Field 35
    Until: 24:00,1.0;        !- Field 36

  Schedule:Compact,
    Office_Occ_w_SB_Sch,
    Fraction,
    Through: 12/31,
    For: Weekdays,
    Until: 01:00, 0.2,
    Until: 02:00, 0.2,
    Until: 03:00, 0.2,
    Until: 04:00, 0.2,
    Until: 05:00, 0.2,
    Until: 06:00, 0.2,
    Until: 07:00, 0.3,
    Until: 08:00, 0.4,
    Until: 09:00, 1,
    Until: 10:00, 1,
    Until: 11:00, 1,
    Until: 12:00, 1,
    Until: 13:00, 0,
    Until: 14:00, 1,
    Until: 15:00, 0,
    Until: 16:00, 1,
    Until: 17:00, 1,
    Until: 18:00, 0.4,
    Until: 19:00, 0.3,
    Until: 20:00, 0.2,
    Until: 21:00, 0.2,
    Until: 22:00, 0.2,
    Until: 23:00, 0.2,
    Until: 24:00, 0.2,
    For: Saturday Sunday Holidays,
    Until: 01:00, 0.2,
    Until: 02:00, 0.2,
    Until: 03:00, 0.2,
    Until: 04:00, 0.2,
    Until: 05:00, 0.2,
    Until: 06:00, 0.2,
    Until: 07:00, 0.2,
    Until: 08:00, 0.3,
    Until: 09:00, 0.5,
    Until: 10:00, 0.5,
    Until: 11:00, 0.5,
    Until: 12:00, 0,
    Until: 13:00, 0.5,
    Until: 14:00, 0.5,
    Until: 15:00, 0,
    Until: 16:00, 0.5,
    Until: 17:00, 0.5,
    Until: 18:00, 0.3,
    Until: 19:00, 0.2,
    Until: 20:00, 0.2,
    Until: 21:00, 0.2,
    Until: 22:00, 0.2,
    Until: 23:00, 0.2,
    Until: 24:00, 0.2,
    For: WinterDesignDay,
    Until: 24:00,
    0.0,
    For: SummerDesignDay CustomDay1 CustomDay2,
    Until: 24:00,
    1.0;
  Schedule:Compact,
    EmployeeLounge_Occ_Sch,  !- Name
    Fraction,                !- Schedule Type Limits Name
    Through: 12/31,          !- Field 1
    For: Weekdays,           !- Field 2
    Until: 05:00,0.0,        !- Field 3
    Until: 07:00,0.1,        !- Field 5
    Until: 12:00,0.2,        !- Field 7
    Until: 13:00,0.7,        !- Field 9
    Until: 18:00,0.2,        !- Field 11
    Until: 20:00,0.1,        !- Field 13
    Until: 24:00,0.0,        !- Field 15
    For: Saturday Sunday Holidays, !- Field 17
    Until: 05:00,0.0,        !- Field 18
    Until: 08:00,0.05,       !- Field 20
    Until: 12:00,0.1,        !- Field 22
    Until: 13:00,0.2,        !- Field 24
    Until: 18:00,0.1,        !- Field 26
    Until: 20:00,0.05,       !- Field 28
    Until: 24:00,0.0,        !- Field 30
    For: WinterDesignDay,    !- Field 32
    Until: 24:00,0.0,        !- Field 33
    For: SummerDesignDay CustomDay1 CustomDay2, !- Field 35
    Until: 24:00,1.0;        !- Field 36

  Schedule:Compact,
    MeetingRoom_Occ_Sch,     !- Name
    Fraction,                !- Schedule Type Limits Name
    Through: 12/31,          !- Field 1
    For: Weekdays,           !- Field 2
    Until: 07:00,0.0,        !- Field 3
    Until: 08:00,0.05,       !- Field 5
    Until: 10:00,0.5,        !- Field 7
    Until: 12:00,0.2,        !- Field 9
    Until: 13:00,0.05,       !- Field 11
    Until: 15:00,0.5,        !- Field 13
    Until: 18:00,0.2,        !- Field 15
    Until: 20:00,0.05,       !- Field 17
    Until: 24:00,0.0,        !- Field 19
    For: Saturday Sunday Holidays, !- Field 21
    Until: 07:00,0.0,        !- Field 22
    Until: 08:00,0.05,       !- Field 24
    Until: 10:00,0.5,        !- Field 26
    Until: 12:00,0.2,        !- Field 28
    Until: 13:00,0.05,       !- Field 30
    Until: 15:00,0.5,        !- Field 32
    Until: 18:00,0.2,        !- Field 34
    Until: 20:00,0.05,       !- Field 36
    Until: 24:00,0.0,        !- Field 38
    For: WinterDesignDay,    !- Field 40
    Until: 24:00,0.0,        !- Field 41
    For: SummerDesignDay CustomDay1 CustomDay2, !- Field 43
    Until: 24:00,1.0;        !- Field 44

  Schedule:Compact,
    MeetingRoom_Occ_w_SB_Sch,
    Fraction,
    Through: 12/31,
    For: Weekdays,
    Until: 01:00, 0,
    Until: 02:00, 0,
    Until: 03:00, 0,
    Until: 04:00, 0,
    Until: 05:00, 0,
    Until: 06:00, 0,
    Until: 07:00, 0,
    Until: 08:00, 0.05,
    Until: 09:00, 0.5,
    Until: 10:00, 0.5,
    Until: 11:00, 0,
    Until: 12:00, 0,
    Until: 13:00, 0.05,
    Until: 14:00, 0.5,
    Until: 15:00, 0,
    Until: 16:00, 0.2,
    Until: 17:00, 0,
    Until: 18:00, 0,
    Until: 19:00, 0,
    Until: 20:00, 0,
    Until: 21:00, 0,
    Until: 22:00, 0,
    Until: 23:00, 0,
    Until: 24:00, 0,
    For: Saturday Sunday Holidays,
    Until: 01:00, 0,
    Until: 02:00, 0,
    Until: 03:00, 0,
    Until: 04:00, 0,
    Until: 05:00, 0,
    Until: 06:00, 0,
    Until: 07:00, 0,
    Until: 08:00, 0.05,
    Until: 09:00, 0.5,
    Until: 10:00, 0.5,
    Until: 11:00, 0.2,
    Until: 12:00, 0.2,
    Until: 13:00, 0,
    Until: 14:00, 0,
    Until: 15:00, 0,
    Until: 16:00, 0,
    Until: 17:00, 0,
    Until: 18:00, 0,
    Until: 19:00, 0,
    Until: 20:00, 0,
    Until: 21:00, 0,
    Until: 22:00, 0,
    Until: 23:00, 0,
    Until: 24:00, 0,
    For: WinterDesignDay,
    Until: 24:00,
    0.0,
    For: SummerDesignDay CustomDay1 CustomDay2,
    Until: 24:00,
    1.0;
  Schedule:Compact,
    LaundryRoom_Occ_Sch,     !- Name
    Fraction,                !- Schedule Type Limits Name
    Through: 12/31,          !- Field 1
    For: Weekdays,           !- Field 2
    Until: 08:00,0.0,        !- Field 3
    Until: 10:00,0.09,       !- Field 5
    Until: 12:00,0.18,       !- Field 7
    Until: 13:00,0.0,        !- Field 9
    Until: 16:00,0.18,       !- Field 11
    Until: 17:00,0.09,       !- Field 13
    Until: 24:00,0.0,        !- Field 15
    For: Saturday Sunday Holidays, !- Field 17
    Until: 08:00,0.0,        !- Field 18
    Until: 10:00,0.09,       !- Field 20
    Until: 12:00,0.18,       !- Field 22
    Until: 13:00,0.0,        !- Field 24
    Until: 16:00,0.18,       !- Field 26
    Until: 17:00,0.09,       !- Field 28
    Until: 24:00,0.0,        !- Field 30
    For: WinterDesignDay,    !- Field 32
    Until: 24:00,0.0,        !- Field 33
    For: SummerDesignDay CustomDay1 CustomDay2, !- Field 35
    Until: 24:00,1.0;        !- Field 36

  Schedule:Compact,
    ExerciseCenter_Occ_Sch,  !- Name
    Fraction,                !- Schedule Type Limits Name
    Through: 12/31,          !- Field 1
    For: AllDays,            !- Field 2
    Until: 06:00,0.0,        !- Field 3
    Until: 07:00,0.5,        !- Field 5
    Until: 11:00,1.0,        !- Field 7
    Until: 12:00,0.5,        !- Field 9
    Until: 13:00,0.0,        !- Field 11
    Until: 22:00,1.0,        !- Field 13
    Until: 23:00,0.5,        !- Field 15
    Until: 24:00,0.0;        !- Field 17



  Schedule:Compact,
    AlwaysOff_SCH,           !- Name
    Fraction,                !- Schedule Type Limits Name
    Through: 12/31,          !- Field 1
    For: AllDays,            !- Field 2
    Until: 24:00,0;          !- Field 3

  Schedule:Compact,
    AlwaysOn_SCH,            !- Name
    Fraction,                !- Schedule Type Limits Name
    Through: 12/31,          !- Field 1
    For: AllDays,            !- Field 2
    Until: 24:00,1;          !- Field 3

  Schedule:Compact,
    BLDG_LIGHT_CORRIDOR_SCH, !- Name
    Fraction,                !- Schedule Type Limits Name
    Through: 12/31,          !- Field 1
    For: AllDays,            !- Field 2
    Until: 24:00,1;          !- Field 3

  Schedule:Compact,
    BLDG_LIGHT_EMPLOYEELOUNGE_SCH,  !- Name
    Fraction,                !- Schedule Type Limits Name
    Through: 12/31,          !- Field 1
    For: Weekdays Saturday Sunday Holidays, !- Field 2
    Until: 5:00,0,           !- Field 3
        Until: 6:00,0.2,               !- Field 4
        Until: 7:00,0.3,               !- Field 5
        Until: 8:00,0.5,               !- Field 6
        Until: 18:00,1,               !- Field 7
        Until: 19:00,0.5,               !- Field 8
        Until: 20:00,0.3,               !- Field 9
        Until: 21:00,0.2,               !- Field 10
        Until: 22:00,0.05,               !- Field 11
        Until: 24:00,0,               !- Field 12
        For: WinterDesignDay,               !- Field 13
        Until: 24:00,0,               !- Field 14
        For: SummerDesignDay CustomDay1 CustomDay2,               !- Field 15
        Until: 24:00,1;               !- Field 16

  Schedule:Compact,
    BLDG_LIGHT_EXERCENTER_SCH,  !- Name
    Fraction,                !- Schedule Type Limits Name
    Through: 12/31,          !- Field 1
    For: AllDays,            !- Field 2
    Until: 6:00,0,           !- Field 3
        Until: 7:00,0.5,               !- Field 4
        Until: 22:00,1,               !- Field 5
        Until: 23:00,0.5,               !- Field 6
        Until: 24:00,0;               !- Field 7

  Schedule:Compact,
    BLDG_LIGHT_FRONTLOUNGE_SCH,  !- Name
    Fraction,                !- Schedule Type Limits Name
    Through: 12/31,          !- Field 1
    For: Weekdays Saturday Sunday Holidays, !- Field 2
    Until: 5:00,0,           !- Field 3
        Until: 6:00,0.2,               !- Field 4
        Until: 7:00,0.3,               !- Field 5
        Until: 8:00,0.5,               !- Field 6
        Until: 18:00,1,               !- Field 7
        Until: 19:00,0.5,               !- Field 8
        Until: 20:00,0.3,               !- Field 9
        Until: 21:00,0.2,               !- Field 10
        Until: 22:00,0.05,               !- Field 11
        Until: 24:00,0,               !- Field 12
        For: WinterDesignDay,               !- Field 13
        Until: 24:00,0,               !- Field 14
        For: SummerDesignDay CustomDay1 CustomDay2,               !- Field 15
        Until: 24:00,1;               !- Field 16

  Schedule:Compact,
    BLDG_LIGHT_GUESTROOM_SCH,!- Name
    Fraction,                !- Schedule Type Limits Name
    Through: 12/31,          !- Field 1
    For: Weekdays,           !- Field 2
    Until: 1:00,0.22,        !- Field 3
        Until: 2:00,0.17,               !- Field 4
        Until: 5:00,0.11,               !- Field 5
        Until: 6:00,0.22,               !- Field 6
        Until: 7:00,0.44,               !- Field 7
        Until: 8:00,0.56,               !- Field 8
        Until: 10:00,0.44,               !- Field 9
        Until: 18:00,0.28,               !- Field 10
        Until: 19:00,0.67,               !- Field 11
        Until: 20:00,0.89,               !- Field 12
        Until: 21:00,1,               !- Field 13
        Until: 22:00,0.89,               !- Field 14
        Until: 23:00,0.67,               !- Field 15
        Until: 24:00,0.33,               !- Field 16
        For: Saturday Sunday Holidays,               !- Field 17
        Until: 2:00,0.26,               !- Field 18
        Until: 6:00,0.11,               !- Field 19
        Until: 8:00,0.41,               !- Field 20
        Until: 10:00,0.56,               !- Field 21
        Until: 11:00,0.41,               !- Field 22
        Until: 18:00,0.33,               !- Field 23
        Until: 19:00,0.85,               !- Field 24
        Until: 22:00,1,               !- Field 25
        Until: 23:00,0.85,               !- Field 26
        Until: 24:00,0.41,               !- Field 27
        For: WinterDesignDay,               !- Field 28
        Until: 24:00,0,               !- Field 29
        For: SummerDesignDay CustomDay1 CustomDay2,               !- Field 30
        Until: 24:00,1;               !- Field 31

  Schedule:Compact,
    BLDG_LIGHT_LAUNDRY_SCH,  !- Name
    Fraction,                !- Schedule Type Limits Name
    Through: 12/31,          !- Field 1
    For: AllDays,            !- Field 2
    Until: 8:00,0,           !- Field 3
        Until: 17:00,1,               !- Field 4
        Until: 24:00,0;               !- Field 5

  Schedule:Compact,
    BLDG_LIGHT_MECHROOM_SCH, !- Name
    Fraction,                !- Schedule Type Limits Name
    Through: 12/31,          !- Field 1
    For: Weekdays,           !- Field 2
    Until: 7:00,0.1,         !- Field 3
        Until: 8:00,0.2,               !- Field 4
        Until: 18:00,0.4,               !- Field 5
        Until: 22:00,0.2,               !- Field 6
        Until: 24:00,0.1,               !- Field 7
        For: Saturday Sunday Holidays,               !- Field 8
        Until: 7:00,0.1,               !- Field 9
        Until: 8:00,0.2,               !- Field 10
        Until: 18:00,0.4,               !- Field 11
        Until: 22:00,0.2,               !- Field 12
        Until: 24:00,0.1,               !- Field 13
        For: WinterDesignDay,               !- Field 14
        Until: 24:00,0,               !- Field 15
        For: SummerDesignDay CustomDay1 CustomDay2,               !- Field 16
        Until: 24:00,1;               !- Field 17

  Schedule:Compact,
    BLDG_LIGHT_MEETINGROOM_SCH,  !- Name
    Fraction,                !- Schedule Type Limits Name
    Through: 12/31,          !- Field 1
    For: Weekdays Saturday Sunday Holidays, !- Field 2
    Until: 5:00,0,           !- Field 3
        Until: 6:00,0.2,               !- Field 4
        Until: 7:00,0.3,               !- Field 5
        Until: 8:00,0.5,               !- Field 6
        Until: 18:00,1,               !- Field 7
        Until: 19:00,0.5,               !- Field 8
        Until: 20:00,0.3,               !- Field 9
        Until: 21:00,0.2,               !- Field 10
        Until: 22:00,0.05,               !- Field 11
        Until: 24:00,0,               !- Field 12
        For: WinterDesignDay,               !- Field 13
        Until: 24:00,0,               !- Field 14
        For: SummerDesignDay CustomDay1 CustomDay2,               !- Field 15
        Until: 24:00,1;               !- Field 16

  Schedule:Compact,
    BLDG_LIGHT_OFFICE_SCH,   !- Name
    Fraction,                !- Schedule Type Limits Name
    Through: 12/31,          !- Field 1
    For: Weekdays Saturday Sunday Holidays, !- Field 2
    Until: 7:00,0.5,         !- Field 3
        Until: 8:00,0.61,               !- Field 4
        Until: 12:00,0.9,               !- Field 5
        Until: 13:00,0.8,               !- Field 6
        Until: 17:00,0.9,               !- Field 7
        Until: 18:00,0.61,               !- Field 8
        Until: 24:00,0.5,               !- Field 9
        For: WinterDesignDay,               !- Field 10
        Until: 24:00,0,               !- Field 11
        For: SummerDesignDay CustomDay1 CustomDay2,               !- Field 12
        Until: 24:00,1;               !- Field 13

  Schedule:Compact,
    BLDG_LIGHT_RESTROOM_SCH, !- Name
    Fraction,                !- Schedule Type Limits Name
    Through: 12/31,          !- Field 1
    For: AllDays,            !- Field 2
    Until: 24:00,1;          !- Field 3

  Schedule:Compact,
    BLDG_LIGHT_STAIR_SCH,    !- Name
    Fraction,                !- Schedule Type Limits Name
    Through: 12/31,          !- Field 1
    For: AllDays,            !- Field 2
    Until: 24:00,1;          !- Field 3

  Schedule:Compact,
    BLDG_LIGHT_STORAGE_SCH,  !- Name
    Fraction,                !- Schedule Type Limits Name
    Through: 12/31,          !- Field 1
    For: Weekdays,           !- Field 2
    Until: 7:00,0.1,         !- Field 3
        Until: 8:00,0.2,               !- Field 4
        Until: 18:00,0.4,               !- Field 5
        Until: 22:00,0.2,               !- Field 6
        Until: 24:00,0.1,               !- Field 7
        For: Saturday Sunday Holidays,               !- Field 8
        Until: 7:00,0.1,               !- Field 9
        Until: 8:00,0.2,               !- Field 10
        Until: 18:00,0.4,               !- Field 11
        Until: 22:00,0.2,               !- Field 12
        Until: 24:00,0.1,               !- Field 13
        For: WinterDesignDay,               !- Field 14
        Until: 24:00,0,               !- Field 15
        For: SummerDesignDay CustomDay1 CustomDay2,               !- Field 16
        Until: 24:00,1;               !- Field 17



















  Schedule:Compact,
    Exterior_Ltg_Sch,        !- Name
    Fraction,                !- Schedule Type Limits Name
    Through: 12/31,          !- Field 1
    For: AllDays,            !- Field 2
    Until: 07:00,1.0,        !- Field 3
    Until: 19:00,0.0,        !- Field 5
    Until: 24:00,1.0;        !- Field 7

  Schedule:Compact,
    GuestRoom_Eqp_Sch_Base,  !- Name
    Fraction,                !- Schedule Type Limits Name
    Through: 12/31,          !- Field 1
    For: Weekdays,           !- Field 2
    Until: 06:00,0.11,       !- Field 3
    Until: 07:00,0.62,       !- Field 5
    Until: 08:00,0.90,       !- Field 7
    Until: 10:00,0.43,       !- Field 9
    Until: 17:00,0.26,       !- Field 11
    Until: 19:00,0.51,       !- Field 13
    Until: 20:00,0.49,       !- Field 15
    Until: 21:00,0.66,       !- Field 17
    Until: 22:00,0.70,       !- Field 19
    Until: 23:00,0.35,       !- Field 21
    Until: 24:00,0.11,       !- Field 23
    For: Saturday Sunday Holidays, !- Field 25
    Until: 06:00,0.11,       !- Field 26
    Until: 07:00,0.3,        !- Field 28
    Until: 08:00,0.62,       !- Field 30
    Until: 09:00,0.90,       !- Field 32
    Until: 10:00,0.62,       !- Field 34
    Until: 17:00,0.29,       !- Field 36
    Until: 18:00,0.43,       !- Field 38
    Until: 19:00,0.51,       !- Field 40
    Until: 20:00,0.49,       !- Field 42
    Until: 21:00,0.66,       !- Field 44
    Until: 22:00,0.70,       !- Field 46
    Until: 23:00,0.35,       !- Field 48
    Until: 24:00,0.11,       !- Field 50
    For: WinterDesignDay,    !- Field 52
    Until: 24:00,0.0,        !- Field 53
    For: SummerDesignDay CustomDay1 CustomDay2, !- Field 55
    Until: 24:00,1.0;        !- Field 56

  Schedule:Compact,
    GuestRoom_Eqp_Sch_Adva,  !- Name
    Fraction,                !- Schedule Type Limits Name
    Through: 12/31,          !- Field 1
    For: Weekdays,           !- Field 2
    Until: 06:00,0.09,       !- Field 3
    Until: 07:00,0.62,       !- Field 5
    Until: 08:00,0.90,       !- Field 7
    Until: 10:00,0.43,       !- Field 9
    Until: 16:00,0.12,       !- Field 11
    Until: 17:00,0.19,       !- Field 13
    Until: 19:00,0.48,       !- Field 15
    Until: 20:00,0.46,       !- Field 17
    Until: 21:00,0.62,       !- Field 19
    Until: 22:00,0.69,       !- Field 21
    Until: 23:00,0.34,       !- Field 23
    Until: 24:00,0.09,       !- Field 25
    For: Saturday Sunday Holidays, !- Field 27
    Until: 06:00,0.09,       !- Field 28
    Until: 07:00,0.3,        !- Field 30
    Until: 08:00,0.62,       !- Field 32
    Until: 09:00,0.90,       !- Field 34
    Until: 10:00,0.62,       !- Field 36
    Until: 16:00,0.13,       !- Field 38
    Until: 17:00,0.21,       !- Field 40
    Until: 18:00,0.40,       !- Field 42
    Until: 19:00,0.48,       !- Field 44
    Until: 20:00,0.46,       !- Field 46
    Until: 21:00,0.62,       !- Field 48
    Until: 22:00,0.69,       !- Field 50
    Until: 23:00,0.34,       !- Field 52
    Until: 24:00,0.09,       !- Field 54
    For: WinterDesignDay,    !- Field 56
    Until: 24:00,0.0,        !- Field 57
    For: SummerDesignDay CustomDay1 CustomDay2, !- Field 59
    Until: 24:00,1.0;        !- Field 60

  Schedule:Compact,
    Lobby_Eqp_Sch,           !- Name
    Fraction,                !- Schedule Type Limits Name
    Through: 12/31,          !- Field 1
    For: Weekdays Saturday Sunday Holidays, !- Field 2
    Until: 05:00,0.21,       !- Field 3
    Until: 06:00,0.68,       !- Field 5
    Until: 10:00,1.0,        !- Field 7
    Until: 11:00,0.32,       !- Field 9
    Until: 23:00,0.23,       !- Field 11
    Until: 24:00,0.21,       !- Field 13
    For: WinterDesignDay,    !- Field 15
    Until: 24:00,0.0,        !- Field 16
    For: SummerDesignDay CustomDay1 CustomDay2, !- Field 18
    Until: 24:00,1.0;        !- Field 19



  Schedule:Compact,
    OFF_EQUIP_SCH,           !- Name
    Fraction,                !- Schedule Type Limits Name
    Through: 12/31,          !- Field 1
    For: Weekdays,           !- Field 2
    Until: 05:00,0.33, !- Field 3
    Until: 07:00,0.38, !- Field 5
    Until: 08:00,0.43, !- Field 7
    Until: 10:00,0.43, !- Field 9
    Until: 12:00,1, !- Field 11
    Until: 13:00,0.94, !- Field 13
    Until: 17:00,1, !- Field 15
    Until: 18:00,0.75, !- Field 17
    Until: 20:00,0.63, !- Field 19
    Until: 22:00,0.48, !- Field 21
    Until: 24:00,0.33, !- Field 23
    For: Saturday Sunday Holidays, !- Field 25
    Until: 05:00,0.33, !- Field 26
    Until: 07:00,0.38, !- Field 28
    Until: 08:00,0.43, !- Field 30
    Until: 18:00,0.63, !- Field 32
    Until: 22:00,0.48, !- Field 34
    Until: 24:00,0.33, !- Field 36
    For: WinterDesignDay,    !- Field 38
    Until: 24:00,0.0,        !- Field 39
    For: SummerDesignDay CustomDay1 CustomDay2, !- Field 41
    Until: 24:00,1.0;        !- Field 42

  Schedule:Compact,
    EmployeeLounge_Eqp_Sch,  !- Name
    Fraction,                !- Schedule Type Limits Name
    Through: 12/31,          !- Field 1
    For: Weekdays,           !- Field 2
    Until: 05:00,0.11, !- Field 3
    Until: 07:00,0.19, !- Field 5
    Until: 08:00,0.25, !- Field 7
    Until: 10:00,1, !- Field 9
    Until: 12:00,0.86, !- Field 11
    Until: 13:00,1, !- Field 13
    Until: 18:00,0.86, !- Field 15
    Until: 19:00,0.25, !- Field 17
    Until: 20:00,0.19, !- Field 19
    Until: 24:00,0.11, !- Field 21
    For: Saturday Sunday Holidays, !- Field 23
    Until: 05:00,0.11, !- Field 24
    Until: 07:00,0.19, !- Field 26
    Until: 08:00,0.25, !- Field 28
    Until: 10:00,1, !- Field 30
    Until: 12:00,0.86, !- Field 32
    Until: 13:00,1, !- Field 34
    Until: 18:00,0.86, !- Field 36
    Until: 19:00,0.25, !- Field 38
    Until: 20:00,0.19, !- Field 40
    Until: 24:00,0.11, !- Field 42
    For: WinterDesignDay,    !- Field 44
    Until: 24:00,0.0,        !- Field 45
    For: SummerDesignDay CustomDay1 CustomDay2, !- Field 47
    Until: 24:00,1.0;        !- Field 48

  Schedule:Compact,
    LaundryRoom_Eqp_Elec_Sch,!- Name
    Fraction,                !- Schedule Type Limits Name
    Through: 12/31,          !- Field 1
    For: Weekdays Saturday Sunday Holidays, !- Field 2
    Until: 08:00,0.0,        !- Field 3
    Until: 16:00,1.0,        !- Field 5
    Until: 24:00,0.0,        !- Field 7
    For: WinterDesignDay,    !- Field 9
    Until: 24:00,0.0,        !- Field 10
    For: SummerDesignDay CustomDay1 CustomDay2, !- Field 12
    Until: 24:00,1.0;        !- Field 13

  Schedule:Compact,
    LaundryRoom_Eqp_Gas_Sch, !- Name
    Fraction,                !- Schedule Type Limits Name
    Through: 12/31,          !- Field 1
    For: Weekdays Saturday Sunday Holidays, !- Field 2
    Until: 9:00,0.0,         !- Field 3
    Until: 17:00,1.0,        !- Field 5
    Until: 24:00,0.0,        !- Field 7
    For: WinterDesignDay,    !- Field 9
    Until: 24:00,0.0,        !- Field 10
    For: SummerDesignDay CustomDay1 CustomDay2, !- Field 12
    Until: 24:00,1.0;        !- Field 13

  Schedule:Compact,
    MeetingRoom_Eqp_Sch,     !- Name
    Fraction,                !- Schedule Type Limits Name
    Through: 12/31,          !- Field 1
    For: AllDays,            !- Field 2
    Until: 07:00,0, !- Field 3
    Until: 08:00,0.05, !- Field 5
    Until: 10:00,0.54, !- Field 7
    Until: 12:00,0.26, !- Field 9
    Until: 13:00,0.05, !- Field 11
    Until: 15:00,0.54, !- Field 13
    Until: 18:00,0.26, !- Field 15
    Until: 20:00,0.05, !- Field 17
    Until: 24:00,0; !- Field 19

  Schedule:Compact,
    ExerciseCenter_Eqp_Sch,  !- Name
    Fraction,                !- Schedule Type Limits Name
    Through: 12/31,          !- Field 1
    For: AllDays,            !- Field 2
    Until: 06:00,0.0,        !- Field 3
    Until: 07:00,0.5,        !- Field 5
    Until: 9:00,1.0,         !- Field 7
    Until: 12:00,0.5,        !- Field 9
    Until: 13:00,0.0,        !- Field 11
    Until: 16:00,0.5,        !- Field 13
    Until: 17:00,1.0,        !- Field 15
    Until: 19:00,0.50,       !- Field 17
    Until: 21:00,1.0,        !- Field 19
    Until: 23:00,0.5,        !- Field 21
    Until: 24:00,0.0;        !- Field 23

  Schedule:Compact,
    SemiHeated_HtgSP_Sch,    !- Name
    Temperature,             !- Schedule Type Limits Name
    Through: 12/31,          !- Field 1
    For: AllDays,            !- Field 2
    Until: 24:00,7.2;        !- Field 3

  Schedule:Compact,
    VacGuestRoom_HtgSP_Sch,  !- Name
    Temperature,             !- Schedule Type Limits Name
    Through: 12/31,          !- Field 1
    For: SummerDesignDay WinterDesignDay, !- Field 2
    Until: 24:00,21.111,     !- Field 3
    For: AllOtherDays,       !- Field 5
    Until: 24:00,18.889;     !- Field 3
  Schedule:Compact,
    VacGuestRoom_ClgSP_Sch,  !- Name
    Temperature,             !- Schedule Type Limits Name
    Through: 12/31,          !- Field 1
    For: SummerDesignDay WinterDesignDay, !- Field 2
    Until: 24:00,21.111,     !- Field 3
    For: AllOtherDays,       !- Field 5
    Until: 24:00,23.333;     !- Field 3

  Schedule:Compact,
    Base_S_OccGuestRoom_HtgSP_Sch,  !- Name
    Temperature,             !- Schedule Type Limits Name
    Through: 12/31,          !- Field 1
    For: AllDays,            !- Field 2
    Until: 24:00,21.111;     !- Field 3

  Schedule:Compact,
    Base_S_OccGuestRoom_ClgSP_Sch,  !- Name
    Temperature,             !- Schedule Type Limits Name
    Through: 12/31,          !- Field 1
    For: AllDays,            !- Field 2
    Until: 24:00,21.111;     !- Field 3

  Schedule:Compact,
    Base_N_OccGuestRoom_HtgSP_Sch,  !- Name
    Temperature,             !- Schedule Type Limits Name
    Through: 12/31,          !- Field 1
    For: AllDays,            !- Field 2
    Until: 24:00,21.111;      !- Field 3
  Schedule:Compact,
    Base_N_OccGuestRoom_ClgSP_Sch,  !- Name
    Temperature,             !- Schedule Type Limits Name
    Through: 12/31,          !- Field 1
    For: AllDays,            !- Field 2
    Until: 24:00,21.111;      !- Field 3




  Schedule:Compact,
    OBCReset_S_OccGuestRoom_HtgSP_Sch_30min,  !- Name
    Temperature,             !- Schedule Type Limits Name
    Through: 12/31,          !- Field 1
    For: SummerDesignDay WinterDesignDay, !- Field 2
    Until: 24:00,            !- Field 3
    21.111,                  !- Field 4
    For: AllOtherDays,       !- Field 5
    Until: 8:00,             !- Field 6
    21.111,                  !- Field 7
    Until: 9:00,             !- Field 8
    21.11,                  !- Field 9
    Until: 11:00,            !- Field 10
    21.111,                  !- Field 11
    Until: 16:00,            !- Field 12
    21.11,                  !- Field 13
    Until: 18:00,            !- Field 14
    21.111,                  !- Field 15
    Until: 19:00,            !- Field 16
    21.11,                  !- Field 17
    Until: 24:00,            !- Field 18
    21.111;                  !- Field 19

  Schedule:Compact,
    OBCReset_S_OccGuestRoom_ClgSP_Sch_30min,  !- Name
    Temperature,             !- Schedule Type Limits Name
    Through: 12/31,          !- Field 1
    For: SummerDesignDay WinterDesignDay, !- Field 2
    Until: 24:00,            !- Field 3
    21.111,                  !- Field 4
    For: AllOtherDays,       !- Field 5
    Until: 8:00,             !- Field 6
    21.111,                  !- Field 7
    Until: 9:00,             !- Field 8
    21.11,                  !- Field 9
    Until: 11:00,            !- Field 10
    21.111,                  !- Field 11
    Until: 16:00,            !- Field 12
    21.11,                  !- Field 13
    Until: 18:00,            !- Field 14
    21.111,                  !- Field 15
    Until: 19:00,            !- Field 16
    21.11,                  !- Field 17
    Until: 24:00,            !- Field 18
    21.111;                  !- Field 19

  Schedule:Compact,
    OBCReset_N_OccGuestRoom_HtgSP_Sch_30min,  !- Name
    Temperature,             !- Schedule Type Limits Name
    Through: 12/31,          !- Field 1
    For: SummerDesignDay WinterDesignDay, !- Field 2
    Until: 24:00,            !- Field 3
    21.111,                  !- Field 4
    For: AllOtherDays,       !- Field 5
    Until: 8:00,             !- Field 6
    21.111,                  !- Field 7
    Until: 9:00,             !- Field 8
    21.11,                  !- Field 9
    Until: 11:00,            !- Field 10
    21.111,                  !- Field 11
    Until: 16:00,            !- Field 12
    21.11,                  !- Field 13
    Until: 18:00,            !- Field 14
    21.111,                  !- Field 15
    Until: 19:00,            !- Field 16
    21.11,                  !- Field 17
    Until: 24:00,            !- Field 18
    21.111;                  !- Field 19

  Schedule:Compact,
    OBCReset_N_OccGuestRoom_ClgSP_Sch_30min,  !- Name
    Temperature,             !- Schedule Type Limits Name
    Through: 12/31,          !- Field 1
    For: SummerDesignDay WinterDesignDay, !- Field 2
    Until: 24:00,            !- Field 3
    21.111,                  !- Field 4
    For: AllOtherDays,       !- Field 5
    Until: 8:00,             !- Field 6
    21.111,                  !- Field 7
    Until: 9:00,             !- Field 8
    21.11,                  !- Field 9
    Until: 11:00,            !- Field 10
    21.111,                  !- Field 11
    Until: 16:00,            !- Field 12
    21.11,                  !- Field 13
    Until: 18:00,            !- Field 14
    21.111,                  !- Field 15
    Until: 19:00,            !- Field 16
    21.11,                  !- Field 17
    Until: 24:00,            !- Field 18
    21.111;                  !- Field 19


  Schedule:Compact,
    OBCReset_S_OccGuestRoom_HtgSP_Sch_20min,  !- Name
    Temperature,             !- Schedule Type Limits Name
    Through: 12/31,          !- Field 1
    For: SummerDesignDay WinterDesignDay, !- Field 2
    Until: 24:00,            !- Field 3
    21.111,                  !- Field 4
    For: AllOtherDays,       !- Field 5
     Until: 7:50,             !- Field 6
    21.111,                  !- Field 7
    Until: 9:00,             !- Field 8
    21.11,                  !- Field 9
    Until: 10:50,            !- Field 10
    21.111,                  !- Field 11
    Until: 16:10,            !- Field 12
    21.11,                  !- Field 13
    Until: 17:50,            !- Field 14
    21.111,                  !- Field 15
    Until: 19:00,            !- Field 16
    21.11,                  !- Field 17
    Until: 24:00,            !- Field 18
    21.111;                  !- Field 19

  Schedule:Compact,
    OBCReset_S_OccGuestRoom_ClgSP_Sch_20min,  !- Name
    Temperature,             !- Schedule Type Limits Name
    Through: 12/31,          !- Field 1
    For: SummerDesignDay WinterDesignDay, !- Field 2
    Until: 24:00,            !- Field 3
    21.111,                  !- Field 4
    For: AllOtherDays,       !- Field 5
     Until: 7:50,             !- Field 6
    21.111,                  !- Field 7
    Until: 9:00,             !- Field 8
    21.11,                  !- Field 9
    Until: 10:50,            !- Field 10
    21.111,                  !- Field 11
    Until: 16:10,            !- Field 12
    21.11,                  !- Field 13
    Until: 17:50,            !- Field 14
    21.111,                  !- Field 15
    Until: 19:00,            !- Field 16
    21.11,                  !- Field 17
    Until: 24:00,            !- Field 18
    21.111;                  !- Field 19

  Schedule:Compact,
    OBCReset_N_OccGuestRoom_HtgSP_Sch_20min,  !- Name
    Temperature,             !- Schedule Type Limits Name
    Through: 12/31,          !- Field 1
    For: SummerDesignDay WinterDesignDay, !- Field 2
    Until: 24:00,            !- Field 3
    21.111,                  !- Field 4
    For: AllOtherDays,       !- Field 5
     Until: 7:50,             !- Field 6
    21.111,                  !- Field 7
    Until: 9:00,             !- Field 8
    21.11,                  !- Field 9
    Until: 10:50,            !- Field 10
    21.111,                  !- Field 11
    Until: 16:10,            !- Field 12
    21.11,                  !- Field 13
    Until: 17:50,            !- Field 14
    21.111,                  !- Field 15
    Until: 19:00,            !- Field 16
    21.11,                  !- Field 17
    Until: 24:00,            !- Field 18
    21.111;                  !- Field 19

  Schedule:Compact,
    MeetingRoom_HtgSP_Sch,   !-Name
    Temperature,             !- Schedule Type Limits Name
    Through: 12/31,
    For: Weekdays,
    Until: 01:00, 21.111,
    Until: 02:00, 21.111,
    Until: 03:00, 21.111,
    Until: 04:00, 21.111,
    Until: 05:00, 21.111,
    Until: 06:00, 21.111,
    Until: 07:00, 21.111,
    Until: 08:00, 21.111,
    Until: 09:00, 21.111,
    Until: 10:00, 21.111,
    Until: 11:00, 20.555,
    Until: 12:00, 20.555,
    Until: 13:00, 21.111,
    Until: 14:00, 21.111,
    Until: 15:00, 20.555,
    Until: 16:00, 21.111,
    Until: 17:00, 20.555,
    Until: 18:00, 20.555,
    Until: 19:00, 21.111,
    Until: 20:00, 21.111,
    Until: 21:00, 21.111,
    Until: 22:00, 21.111,
    Until: 23:00, 21.111,
    Until: 24:00, 21.111,
    For: Saturday Sunday Holidays,
    Until: 01:00, 21.111,
    Until: 02:00, 21.111,
    Until: 03:00, 21.111,
    Until: 04:00, 21.111,
    Until: 05:00, 21.111,
    Until: 06:00, 21.111,
    Until: 07:00, 21.111,
    Until: 08:00, 21.111,
    Until: 09:00, 21.111,
    Until: 10:00, 21.111,
    Until: 11:00, 21.111,
    Until: 12:00, 21.111,
    Until: 13:00, 20.555,
    Until: 14:00, 20.555,
    Until: 15:00, 20.555,
    Until: 16:00, 20.555,
    Until: 17:00, 20.555,
    Until: 18:00, 20.555,
    Until: 19:00, 21.111,
    Until: 20:00, 21.111,
    Until: 21:00, 21.111,
    Until: 22:00, 21.111,
    Until: 23:00, 21.111,
    Until: 24:00, 21.111,
    For: AllOtherDays,
    Until: 24:00,
    21.111;

  Schedule:Compact,
    Office_HtgSP_Sch,   !-Name
    Temperature,             !- Schedule Type Limits Name
    Through: 12/31,
    For: Weekdays,
    Until: 01:00, 21.111,
    Until: 02:00, 21.111,
    Until: 03:00, 21.111,
    Until: 04:00, 21.111,
    Until: 05:00, 21.111,
    Until: 06:00, 21.111,
    Until: 07:00, 21.111,
    Until: 08:00, 21.111,
    Until: 09:00, 21.111,
    Until: 10:00, 21.111,
    Until: 11:00, 21.111,
    Until: 12:00, 21.111,
    Until: 13:00, 20.555,
    Until: 14:00, 21.111,
    Until: 15:00, 20.555,
    Until: 16:00, 21.111,
    Until: 17:00, 21.111,
    Until: 18:00, 21.111,
    Until: 19:00, 21.111,
    Until: 20:00, 21.111,
    Until: 21:00, 21.111,
    Until: 22:00, 21.111,
    Until: 23:00, 21.111,
    Until: 24:00, 21.111,
    For: Saturday Sunday Holidays,
    Until: 01:00, 21.111,
    Until: 02:00, 21.111,
    Until: 03:00, 21.111,
    Until: 04:00, 21.111,
    Until: 05:00, 21.111,
    Until: 06:00, 21.111,
    Until: 07:00, 21.111,
    Until: 08:00, 21.111,
    Until: 09:00, 21.111,
    Until: 10:00, 21.111,
    Until: 11:00, 21.111,
    Until: 12:00, 20.555,
    Until: 13:00, 21.111,
    Until: 14:00, 21.111,
    Until: 15:00, 20.555,
    Until: 16:00, 21.111,
    Until: 17:00, 21.111,
    Until: 18:00, 21.111,
    Until: 19:00, 21.111,
    Until: 20:00, 21.111,
    Until: 21:00, 21.111,
    Until: 22:00, 21.111,
    Until: 23:00, 21.111,
    Until: 24:00, 21.111,
    For: AllOtherDays,
    Until: 24:00,
    21.111;

  Schedule:Compact,
    OBCReset_N_OccGuestRoom_ClgSP_Sch_20min,  !- Name
    Temperature,             !- Schedule Type Limits Name
    Through: 12/31,          !- Field 1
    For: SummerDesignDay WinterDesignDay,  !- Field 2
    Until: 24:00,            !- Field 3
    21.111,                  !- Field 4
    For: AllOtherDays,       !- Field 5
     Until: 7:50,             !- Field 6
    21.111,                  !- Field 7
    Until: 9:00,             !- Field 8
    21.11,                  !- Field 9
    Until: 10:50,            !- Field 10
    21.111,                  !- Field 11
    Until: 16:10,            !- Field 12
    21.11,                  !- Field 13
    Until: 17:50,            !- Field 14
    21.111,                  !- Field 15
    Until: 19:00,            !- Field 16
    21.11,                  !- Field 17
    Until: 24:00,            !- Field 18
    21.111;                  !- Field 19


  Schedule:Compact,
    MeetingRoom_ClgSP_Sch,   !-Name
    Temperature,             !- Schedule Type Limits Name
    Through: 12/31,
    For: Weekdays,
    Until: 01:00, 23.889,
    Until: 02:00, 23.889,
    Until: 03:00, 23.889,
    Until: 04:00, 23.889,
    Until: 05:00, 23.889,
    Until: 06:00, 23.889,
    Until: 07:00, 23.889,
    Until: 08:00, 23.889,
    Until: 09:00, 23.8889,
    Until: 10:00, 23.8889,
    Until: 11:00, 24.445,
    Until: 12:00, 24.445,
    Until: 13:00, 23.8889,
    Until: 14:00, 23.8889,
    Until: 15:00, 24.445,
    Until: 16:00, 23.8889,
    Until: 17:00, 24.445,
    Until: 18:00, 24.445,
    Until: 19:00, 23.889,
    Until: 20:00, 23.889,
    Until: 21:00, 23.889,
    Until: 22:00, 23.889,
    Until: 23:00, 23.889,
    Until: 24:00, 23.889,
    For: Saturday Sunday Holidays,
    Until: 01:00, 23.889,
    Until: 02:00, 23.889,
    Until: 03:00, 23.889,
    Until: 04:00, 23.889,
    Until: 05:00, 23.889,
    Until: 06:00, 23.889,
    Until: 07:00, 23.889,
    Until: 08:00, 23.889,
    Until: 09:00, 23.889,
    Until: 10:00, 23.889,
    Until: 11:00, 23.889,
    Until: 12:00, 23.889,
    Until: 13:00, 24.445,
    Until: 14:00, 24.445,
    Until: 15:00, 24.445,
    Until: 16:00, 24.445,
    Until: 17:00, 24.445,
    Until: 18:00, 24.445,
    Until: 19:00, 23.889,
    Until: 20:00, 23.889,
    Until: 21:00, 23.889,
    Until: 22:00, 23.889,
    Until: 23:00, 23.889,
    Until: 24:00, 23.889,
    For: AllOtherDays,
    Until: 24:00,
    23.889;


  Schedule:Compact,
    Office_ClgSP_Sch,   !-Name
    Temperature,             !- Schedule Type Limits Name
    Through: 12/31,
    For: Weekdays,
    Until: 01:00, 23.8889,
    Until: 02:00, 23.8889,
    Until: 03:00, 23.8889,
    Until: 04:00, 23.8889,
    Until: 05:00, 23.8889,
    Until: 06:00, 23.8889,
    Until: 07:00, 23.8889,
    Until: 08:00, 23.8889,
    Until: 09:00, 23.8889,
    Until: 10:00, 23.8889,
    Until: 11:00, 23.8889,
    Until: 12:00, 23.8889,
    Until: 13:00, 24.445,
    Until: 14:00, 23.8889,
    Until: 15:00, 24.445,
    Until: 16:00, 23.8889,
    Until: 17:00, 23.8889,
    Until: 18:00, 23.8889,
    Until: 19:00, 23.8889,
    Until: 20:00, 23.8889,
    Until: 21:00, 23.8889,
    Until: 22:00, 23.8889,
    Until: 23:00, 23.8889,
    Until: 24:00, 23.8889,
    For: Saturday Sunday Holidays,
    Until: 01:00, 23.889,
    Until: 02:00, 23.889,
    Until: 03:00, 23.889,
    Until: 04:00, 23.889,
    Until: 05:00, 23.889,
    Until: 06:00, 23.889,
    Until: 07:00, 23.889,
    Until: 08:00, 23.889,
    Until: 09:00, 23.889,
    Until: 10:00, 23.889,
    Until: 11:00, 23.889,
    Until: 12:00, 24.445,
    Until: 13:00, 23.889,
    Until: 14:00, 23.889,
    Until: 15:00, 24.445,
    Until: 16:00, 23.889,
    Until: 17:00, 23.889,
    Until: 18:00, 23.889,
    Until: 19:00, 23.889,
    Until: 20:00, 23.889,
    Until: 21:00, 23.889,
    Until: 22:00, 23.889,
    Until: 23:00, 23.889,
    Until: 24:00, 23.889,
    For: AllOtherDays,
    Until: 24:00,
    23.889;
Schedule:Compact,
    Occ_Guestroom_Vent_Ctrl_30min,  !- Name
    Fraction,                !- Schedule Type Limits Name
    Through: 12/31,          !- Field 1
    For: SummerDesignDay WinterDesignDay,  !- Field 2
    Until: 24:00,            !- Field 3
    1,                       !- Field 4
    For: AllOtherDays,       !- Field 5
    Until: 8:00,             !- Field 6
    1.0,                     !- Field 7
    Until: 9:00,             !- Field 8
    0.0,                     !- Field 9
    Until: 11:00,            !- Field 10
    1.0,                     !- Field 11
    Until: 13:00,            !- Field 12
    0,                       !- Field 13
    Until: 14:00,            !- Field 14
    1,                       !- Field 15
    Until: 16:00,            !- Field 16
    0,                       !- Field 17
    Until: 18:00,            !- Field 18
    1,                       !- Field 19
    Until: 19:00,            !- Field 20
    0,                       !- Field 21
    Until: 24:00,            !- Field 22
    1;                       !- Field 23


  Schedule:Compact,
    Occ_Guestroom_Vent_Ctrl_20min,  !- Name
    Fraction,                !- Schedule Type Limits Name
    Through: 12/31,          !- Field 1
    For: SummerDesignDay WinterDesignDay,  !- Field 2
    Until: 24:00,            !- Field 3
    1,                       !- Field 4
    For: AllOtherDays,       !- Field 5
    Until: 7:50,             !- Field 6
    1.0,                     !- Field 7
    Until: 9:00,             !- Field 8
    0.0,                     !- Field 9
    Until: 10:50,            !- Field 10
    1.0,                     !- Field 11
    Until: 13:00,            !- Field 12
    0,                       !- Field 13
    Until: 14:00,            !- Field 14
    1,                       !- Field 15
    Until: 16:10,            !- Field 16
    0,                       !- Field 17
    Until: 17:50,            !- Field 18
    1,                       !- Field 19
    Until: 19:00,            !- Field 20
    0,                       !- Field 21
    Until: 24:00,            !- Field 22
    1;                       !- Field 23

  Schedule:Compact,
    CommonArea_HtgSP_Sch,    !- Name
    Temperature,             !- Schedule Type Limits Name
    Through: 12/31,          !- Field 1
    For: AllDays,            !- Field 2
    Until: 24:00,21.111;     !- Field 3



  Schedule:Compact,
    CommonArea_ClgSP_Sch,    !- Name
    Temperature,             !- Schedule Type Limits Name
    Through: 12/31,          !- Field 1
    For: AllDays,            !- Field 2
    Until: 24:00,23.889;     !- Field 3



  Schedule:Compact,
    Off During Unoccupied Period,  !- Name
    On/Off,                  !- Schedule Type Limits Name
    Through: 12/31,          !- Field 1
    For: AllDays,            !- Field 2
    Until: 8:00,0,           !- Field 3
    Until: 18:00,1,          !- Field 5
    Until: 24:00,0;          !- Field 7
  Schedule:Compact,
    MeetingRoom_Fan_Sch,   !-Name
    Fraction,   !-Schedule Type Limits Name
    Through: 12/31,
    For: Weekdays,
    Until: 01:00, 0,
    Until: 02:00, 0,
    Until: 03:00, 0,
    Until: 04:00, 0,
    Until: 05:00, 0,
    Until: 06:00, 0,
    Until: 07:00, 0,
    Until: 08:00, 0,
    Until: 09:00, 1,
    Until: 10:00, 1,
    Until: 11:00, 0,
    Until: 12:00, 0,
    Until: 13:00, 1,
    Until: 14:00, 1,
    Until: 15:00, 0,
    Until: 16:00, 1,
    Until: 17:00, 0,
    Until: 18:00, 0,
    Until: 19:00, 0,
    Until: 20:00, 0,
    Until: 21:00, 0,
    Until: 22:00, 0,
    Until: 23:00, 0,
    Until: 24:00, 0,
    For: Saturday Sunday Holidays,
    Until: 01:00, 0,
    Until: 02:00, 0,
    Until: 03:00, 0,
    Until: 04:00, 0,
    Until: 05:00, 0,
    Until: 06:00, 0,
    Until: 07:00, 0,
    Until: 08:00, 0,
    Until: 09:00, 1,
    Until: 10:00, 1,
    Until: 11:00, 1,
    Until: 12:00, 1,
    Until: 13:00, 0,
    Until: 14:00, 0,
    Until: 15:00, 0,
    Until: 16:00, 0,
    Until: 17:00, 0,
    Until: 18:00, 0,
    Until: 19:00, 0,
    Until: 20:00, 0,
    Until: 21:00, 0,
    Until: 22:00, 0,
    Until: 23:00, 0,
    Until: 24:00, 0,
    For: AllOtherDays,
    Until: 8:00,
    0,
    Until: 18:00,
    1,
    Until: 24:00,
    0;

  Schedule:Compact,
    GuestRoom_Infil_Sch,     !- Name
    Fraction,                !- Schedule Type Limits Name
    Through: 12/31,          !- Field 1
    For: Weekdays Saturday Sunday Holidays, !- Field 2
    Until: 24:00,0.25,       !- Field 3
    For: WinterDesignDay,    !- Field 5
    Until: 24:00,0.0,        !- Field 6
    For: SummerDesignDay CustomDay1 CustomDay2, !- Field 8
    Until: 24:00,1.0;        !- Field 9

  Schedule:Compact,
    CommonArea_Infil_Sch,    !- Name
    Fraction,                !- Schedule Type Limits Name
    Through: 12/31,          !- Field 1
    For: Weekdays Saturday Sunday Holidays, !- Field 2
    Until: 24:00,0.25,       !- Field 3
    For: WinterDesignDay,    !- Field 5
    Until: 24:00,0.0,        !- Field 6
    For: SummerDesignDay CustomDay1 CustomDay2, !- Field 8
    Until: 24:00,1.0;        !- Field 9

  Schedule:Compact,
    INFIL_Door_Opening_SCH,  !- Name
    fraction,                !- Schedule Type Limits Name
    Through: 12/31,          !- Field 1
    For: AllDays,            !- Field 2
    Until: 06:00,0.0,        !- Field 3
    Until: 07:00,
    0.144,            !- Field 6
    Until: 08:00,1.0,        !- Field 7
    Until: 17:00,
    0.144,            !- Field 10
    Until: 18:00,1.0,        !- Field 11
    Until: 22:00,
    0.144,            !- Field 14
    Until: 24:00,0.0;        !- Field 15

  Schedule:Compact,
    SHWSysShower-Loop-Temp-Schedule,  !- Name
    Temperature,             !- Schedule Type Limits Name
    Through: 12/31,          !- Field 1
    For: AllDays,            !- Field 2
    Until: 24:00,60.0;       !- Field 3

  Schedule:Compact,
    SHWSysLaundry-Loop-Temp-Schedule,  !- Name
    Temperature,             !- Schedule Type Limits Name
    Through: 12/31,          !- Field 1
    For: AllDays,            !- Field 2
    Until: 24:00,60.0;       !- Field 3

  Schedule:Compact,
    SHWSysShower Water Heater Setpoint Temperature Schedule,  !- Name
    Temperature,             !- Schedule Type Limits Name
    Through: 12/31,          !- Field 1
    For: AllDays,            !- Field 2
    Until: 24:00,60.0;       !- Field 3

  Schedule:Compact,
    SHWSysLaundry Water Heater Setpoint Temperature Schedule,  !- Name
    Temperature,             !- Schedule Type Limits Name
    Through: 12/31,          !- Field 1
    For: AllDays,            !- Field 2
    Until: 24:00,60.0;       !- Field 3

  Schedule:Compact,
    SHWSys Water Heater Ambient Temperature Schedule,  !- Name
    Temperature,             !- Schedule Type Limits Name
    Through: 12/31,          !- Field 1
    For: AllDays,            !- Field 2
    Until: 24:00,21.1;       !- Field 3



  Schedule:Compact,
    GuestRoom_SHW_Sch,       !- Name
    Fraction,                !- Schedule Type Limits Name
    Through: 12/31,          !- Field 1
    For: Weekdays,           !- Field 2
    Until: 01:00,0.20,       !- Field 3
    Until: 04:00,0.15,       !- Field 5
    Until: 05:00,0.2,        !- Field 7
    Until: 06:00,0.35,       !- Field 9
    Until: 07:00,0.60,       !- Field 11
    Until: 08:00,0.80,       !- Field 13
    Until: 09:00,0.55,       !- Field 15
    Until: 10:00,0.40,       !- Field 17
    Until: 11:00,0.30,       !- Field 19
    Until: 17:00,0.20,       !- Field 21
    Until: 18:00,0.30,       !- Field 23
    Until: 19:00,0.55,       !- Field 25
    Until: 21:00,0.40,       !- Field 27
    Until: 22:00,0.60,       !- Field 29
    Until: 23:00,0.45,       !- Field 31
    Until: 24:00,0.25,       !- Field 33
    For: AllOtherDays,       !- Field 35
    Until: 01:00,0.2,        !- Field 36
    Until: 04:00,0.15,       !- Field 38
    Until: 05:00,0.2,        !- Field 40
    Until: 06:00,0.25,       !- Field 42
    Until: 07:00,0.35,       !- Field 44
    Until: 08:00,0.60,       !- Field 46
    Until: 09:00,0.80,       !- Field 48
    Until: 10:00,0.55,       !- Field 50
    Until: 11:00,0.40,       !- Field 52
    Until: 12:00,0.30,       !- Field 54
    Until: 17:00,0.20,       !- Field 56
    Until: 18:00,0.25,       !- Field 58
    Until: 19:00,0.30,       !- Field 60
    Until: 22:00,0.40,       !- Field 62
    Until: 23:00,0.60,       !- Field 64
    Until: 24:00,0.35;       !- Field 66

  Schedule:Compact,
    LaundryRoom_SHW_Sch,     !- Name
    Fraction,                !- Schedule Type Limits Name
    Through: 12/31,          !- Field 1
    For: AllDays,            !- Field 2
    Until: 08:00,0.0,        !- Field 3
    Until: 16:00,1.0,        !- Field 5
    Until: 24:00,0.0;        !- Field 7

  Schedule:Compact,
    SHW Latent fract sched,  !- Name
    Fraction,                !- Schedule Type Limits Name
    Through: 12/31,          !- Field 1
    For: AllDays,            !- Field 2
    Until: 24:00,0.05;       !- Field 3

  Schedule:Compact,
    SHW Sensible fract sched,!- Name
    Fraction,                !- Schedule Type Limits Name
    Through: 12/31,          !- Field 1
    For: AllDays,            !- Field 2
    Until: 24:00,0.20;       !- Field 3

  Schedule:Compact,
    SHW Shower Temp Sched,   !- Name
    Temperature,             !- Schedule Type Limits Name
    Through: 12/31,          !- Field 1
    For: AllDays,            !- Field 2
    Until: 24:00,60.0;       !- Field 3

  Schedule:Compact,
    SHW Laundry Temp Sched,  !- Name
    Temperature,             !- Schedule Type Limits Name
    Through: 12/31,          !- Field 1
    For: AllDays,            !- Field 2
    Until: 24:00,82.22;      !- Field 3

  Schedule:Compact,
    PlantOnSched,            !- Name
    On/Off,                  !- Schedule Type Limits Name
    Through: 12/31,          !- Field 1
    For: AllDays,            !- Field 2
    Until: 24:00,1.0;        !- Field 3

  Schedule:Compact,
    Activity_Sch,            !- Name
    Any Number,              !- Schedule Type Limits Name
    Through: 12/31,          !- Field 1
    For: AllDays,            !- Field 2
    Until: 24:00,132;        !- Field 3



  Schedule:Compact,
    BLDG_ELEVATORS,          !- Name
    Fraction,                !- Schedule Type Limits Name
    Through: 12/31,          !- Field 1
    For: SummerDesignday,    !- Field 2
    Until: 24:00,0.5,        !- Field 3
    For: WinterDesignDay,    !- Field 5
    Until: 24:00,0.05,       !- Field 6
    For: AllOtherDays,       !- Field 8
    Until: 04:00,0.05,       !- Field 9
    Until: 05:00,0.10,       !- Field 11
    Until: 06:00,0.20,       !- Field 13
    Until: 07:00,0.40,       !- Field 15
    Until: 09:00,0.50,       !- Field 17
    Until: 10:00,0.35,       !- Field 19
    Until: 16:00,0.15,       !- Field 21
    Until: 17:00,0.35,       !- Field 23
    Until: 19:00,0.50,       !- Field 25
    Until: 21:00,0.40,       !- Field 27
    Until: 22:00,0.30,       !- Field 29
    Until: 23:00,0.20,       !- Field 31
    Until: 24:00,0.10;       !- Field 33



  Schedule:Compact,
    ELEV_LIGHT_FAN_SCH_24_7, !- Name
    Fraction,                !- Schedule Type Limits Name
    Through: 12/31,          !- Field 1
    For: AllDays,            !- Field 2
    Until: 24:00,1;          !- Field 3



  Schedule:Compact,
    ELEV_LIGHT_FAN_SCH_ADD_DF,  !- Name
    Fraction,                !- Schedule Type Limits Name
    Through: 12/31,          !- Field 1
    For: SummerDesignday,    !- Field 2
    Until: 24:00,0.5,        !- Field 3
    For: WinterDesignDay,    !- Field 5
    Until: 24:00,0.05,       !- Field 6
    For: AllOtherDays,       !- Field 8
    Until: 04:00,0.05,       !- Field 9
    Until: 05:00,0.10,       !- Field 11
    Until: 06:00,0.20,       !- Field 13
    Until: 07:00,0.40,       !- Field 15
    Until: 09:00,0.50,       !- Field 17
    Until: 10:00,0.35,       !- Field 19
    Until: 16:00,0.15,       !- Field 21
    Until: 17:00,0.35,       !- Field 23
    Until: 19:00,0.50,       !- Field 25
    Until: 21:00,0.40,       !- Field 27
    Until: 22:00,0.30,       !- Field 29
    Until: 23:00,0.20,       !- Field 31
    Until: 24:00,0.10;       !- Field 33

  Schedule:Compact,
    Heat Exchanger Supply Air Temp Sch,  !- Name
    Temperature,             !- Schedule Type Limits Name
    Through: 12/31,          !- Field 1
    For: AllDays,            !- Field 2
    Until: 24:00,14.0;       !- Field 3

  Schedule:Compact,
    MinOA_MotorizedDamper_Sched,  !- Name
    Fraction,                !- Schedule Type Limits Name
    Through: 12/31,          !- Field 1
    For: AllDays,            !- Field 2
    Until: 24:00,1.0;        !- Field 3

  Schedule:Compact,
    Vac_Guestroom_Vent_Ctrl, !- Name
    Fraction,                !- Schedule Type Limits Name
    Through: 12/31,          !- Field 1
    For: SummerDesignDay WinterDesignDay, !- Field 2
    Until: 24:00,1,          !- Field 3
    For: AllOtherDays,       !- Field 5
    Until: 15:00,0,          !- Field 6
    Until: 16:00,1,      !- Field 6
    Until: 24:00,0;     !- Field 3


  Schedule:Constant,SZ_system_OA_Max_Frac_SCH,Fraction,
  0.7;


!
!-   ===========  ALL OBJECTS IN CLASS: MATERIAL:REGULAR ===========
 
{% include "wall_roof" %} 
 
  Material,
    Std Wood 6inch,          !- Name
    MediumSmooth,            !- Roughness
    0.15,                    !- Thickness {m}
    0.12,                    !- Conductivity {W/m-K}
    540.0000,                !- Density {kg/m3}
    1210,                    !- Specific Heat {J/kg-K}
    0.9000000,               !- Thermal Absorptance
    0.7000000,               !- Solar Absorptance
    0.7000000;               !- Visible Absorptance
 
  Material,
    AC02 Acoustic Ceiling,   !- Name
    MediumSmooth,            !- Roughness
    1.2700000E-02,           !- Thickness {m}
    5.7000000E-02,           !- Conductivity {W/m-K}
    288.0000,                !- Density {kg/m3}
    1339.000,                !- Specific Heat {J/kg-K}
    0.9000000,               !- Thermal Absorptance
    0.7000000,               !- Solar Absorptance
    0.2000000;               !- Visible Absorptance
 
  Material,
    F07 25mm stucco,         !- Name
    Smooth,                  !- Roughness
    0.0254,                  !- Thickness {m}
    0.72,                    !- Conductivity {W/m-K}
    1856,                    !- Density {kg/m3}
    840,                     !- Specific Heat {J/kg-K}
    0.9,                     !- Thermal Absorptance
    0.7,                     !- Solar Absorptance
    0.7;                     !- Visible Absorptance
 
  Material,
    F08 Metal surface,       !- Name
    Smooth,                  !- Roughness
    0.0008,                  !- Thickness {m}
    45.28,                   !- Conductivity {W/m-K}
    7824,                    !- Density {kg/m3}
    500;                     !- Specific Heat {J/kg-K}

  Material,
    F08 Metal roof surface,       !- Name
    Smooth,                  !- Roughness
    0.0008,                  !- Thickness {m}
    45.28,                   !- Conductivity {W/m-K}
    7824,                    !- Density {kg/m3}
    500,                     !- Specific Heat {J/kg-K}
    0.9,                     !- Absorptance:Thermal
    0.7;                     !- Absorptance:Solar
    
  Material,
    F12 Asphalt shingles,    !- Name
    VeryRough,               !- Roughness
    0.0032,                  !- Thickness {m}
    0.04,                    !- Conductivity {W/m-K}
    1120,                    !- Density {kg/m3}
    1260,                    !- Specific Heat {J/kg-K}
    0.9,                     !- Absorptance:Thermal
    0.7;                     !- Absorptance:Solar
 
  Material,
    F13 Built-up roofing,    !- Name
    Rough,                   !- Roughness
    0.0095,                  !- Thickness {m}
    0.16,                    !- Conductivity {W/m-K}
    1120,                    !- Density {kg/m3}
    1460,                    !- Specific Heat {J/kg-K}
    0.9,                     !- Absorptance:Thermal
    0.7;                     !- Absorptance:Solar

  Material,
    G01 13mm gypsum board,   !- Name
    Smooth,                  !- Roughness
    0.0127,                  !- Thickness {m}
    0.1600,                  !- Conductivity {W/m-K}
    800.0000,                !- Density {kg/m3}
    1090.0000,               !- Specific Heat {J/kg-K}
    0.9000,                  !- Absorptance:Thermal
    0.7000,                  !- Absorptance:Solar
    0.5000;                  !- Absorptance:Visible
    
  Material,
    G01 16mm gypsum board,   !- Name
    MediumSmooth,            !- Roughness
    0.0159,                  !- Thickness {m}
    0.16,                    !- Conductivity {W/m-K}
    800,                     !- Density {kg/m3}
    1090;                    !- Specific Heat {J/kg-K}
 
  Material,
    G02 16mm plywood,        !- Name
    Smooth,                  !- Roughness
    0.0159,                  !- Thickness {m}
    0.12,                    !- Conductivity {W/m-K}
    544,                     !- Density {kg/m3}
    1210;                    !- Specific Heat {J/kg-K}
 
  Material,
    M14 150mm heavyweight concrete roof,  !- Name
    MediumRough,             !- Roughness
    0.1524,                  !- Thickness {m}
    2.31,                    !- Conductivity {W/m-K}
    2322,       !- Density {kg/m3}
    832;           !- Specific Heat {J/kg-K}


  Material,
    100mm Normalweight concrete wall,  !- Name  - based on 90.1-2004 Appendix-Table A3-1B
    MediumRough,             !- Roughness
    0.1016,                  !- Thickness {m}
    2.31,                    !- Conductivity {W/m-K}
    2322,       !- Density {kg/m3}
    832;           !- Specific Heat {J/kg-K}


  Material,
    200mm Normalweight concrete wall,  !- Name  - based on 90.1-2004 Appendix-Table A3-1B
    MediumRough,             !- Roughness
    0.2032,                  !- Thickness {m}
    2.31,                    !- Conductivity {W/m-K}
    2322,       !- Density {kg/m3}
    832;           !- Specific Heat {J/kg-K}

  Material,
    100mm Normalweight concrete floor,  !- Name  - based on 90.1-2004 Appendix-Table A3-1B
    MediumRough,             !- Roughness
    0.1016,                  !- Thickness {m}
    2.31,                    !- Conductivity {W/m-K}
    2322,       !- Density {kg/m3}
    832;           !- Specific Heat {J/kg-K}

  Material,
    150mm Normalweight concrete floor,  !- Name  - based on 90.1-2004 Appendix-Table A3-1B
    MediumRough,             !- Roughness
    0.1524,                  !- Thickness {m}
    2.31,                    !- Conductivity {W/m-K}
    2322,       !- Density {kg/m3}
    832;           !- Specific Heat {J/kg-K}

  Material,
    200mm Normalweight concrete floor,  !- Name  - based on 90.1-2004 Appendix-Table A3-1B
    MediumRough,             !- Roughness
    0.2032,                  !- Thickness {m}
    2.31,                    !- Conductivity {W/m-K}
    2322,       !- Density {kg/m3}
    832;           !- Specific Heat {J/kg-K}

  Material,
    M10 200mm concrete block wall,  !- Name
    MediumRough,             !- Roughness
    0.2032,                  !- Thickness {m}
    0.72,                    !- Conductivity {W/m-K}
    800,       !- Density {kg/m3}
    832;           !- Specific Heat {J/kg-K}

  Material,
    M10 200mm concrete block basement wall,  !- Name
    MediumRough,             !- Roughness
    0.2032,                  !- Thickness {m}
    1.326,                    !- Conductivity {W/m-K}
    1842,       !- Density {kg/m3}
    912;           !- Specific Heat {J/kg-K}


  Material:NoMass,
    CP02 CARPET PAD,         !- Name
    VeryRough,               !- Roughness
    0.21648,                 !- Thermal Resistance {m2-K/W}
    0.9,                     !- Thermal Absorptance
    0.7,                     !- Solar Absorptance
    0.8;                     !- Visible Absorptance

 
  Material:NoMass,
    Air_Wall_Material,       !- Name
    Rough,                   !- Roughness
    0.2079491,               !- Thermal Resistance {m2-K/W}
    0.9,                     !- Thermal Absorptance
    0.7;                     !- Solar Absorptance


  Material:NoMass,
    Res_Roof_Insulation,  !- Name
    MediumSmooth,            !- Roughness
    0.0299387330245182,
            !- Thermal Resistance {m2-K/W}
    0.9,                     !- Thermal Absorptance
    0.7,                     !- Solar Absorptance
    0.7;                     !- Visible Absorptance

  Material:NoMass,
    Semiheated_Roof_Insulation,  !- Name
    MediumSmooth,            !- Roughness
    0.0299387330245182,
            !- Thermal Resistance {m2-K/W}
    0.9,                     !- Thermal Absorptance
    0.7,                     !- Solar Absorptance
    0.7;                     !- Visible Absorptance


  Material:NoMass,
    Res_Exterior_Wall_Insulation,  !- Name
    MediumSmooth,            !- Roughness
    0.0299387330245182,
            !- Thermal Resistance {m2-K/W}
    0.9,                     !- Thermal Absorptance
    0.7,                     !- Solar Absorptance
    0.7;                     !- Visible Absorptance

  Material:NoMass,
    Semiheated_Exterior_Wall_Insulation,  !- Name
    MediumSmooth,            !- Roughness
    0.0299387330245182,
            !- Thermal Resistance {m2-K/W}
    0.9,                     !- Thermal Absorptance
    0.7,                     !- Solar Absorptance
    0.7;                     !- Visible Absorptance



  Material:NoMass,
    Nonres_Floor_Insulation,  !- Name
    MediumSmooth,            !- Roughness

    0.0299387330245182,
            !- Thermal Resistance {m2-K/W}
    0.9,                     !- Thermal Absorptance
    0.7,                     !- Solar Absorptance
    0.7;                     !- Visible Absorptance

  Material:NoMass,
    Res_Floor_Insulation,  !- Name
    MediumSmooth,            !- Roughness

    0.0299387330245182,
            !- Thermal Resistance {m2-K/W}
    0.9,                     !- Thermal Absorptance
    0.7,                     !- Solar Absorptance
    0.7;                     !- Visible Absorptance

  Material:NoMass,
    Semiheated_Floor_Insulation,  !- Name
    MediumSmooth,            !- Roughness

    0.0299387330245182,
            !- Thermal Resistance {m2-K/W}
    0.9,                     !- Thermal Absorptance
    0.7,                     !- Solar Absorptance
    0.7;                     !- Visible Absorptance

  Material:NoMass,
    Std Opaque Door Panel,  !- Name
    MediumRough,             !- Roughness
    0.123456790123457,  !- (corresponds to default RSI-0.12327 or R-0.7) Thermal Resistance {m2-K/W}
    0.9,                     !- Thermal Absorptance
    0.7,                     !- Solar Absorptance
    0.7;                     !- Visible Absorptance

{% include "window" %} 

!-   ===========  ALL OBJECTS IN CLASS: CONSTRUCTION ===========

  Construction,
    InteriorFurnishings,     !- Name
    Std Wood 6inch;          !- Outside Layer
 
  Construction,
    Air_Wall,                !- Name
    Air_Wall_Material;       !- Outside Layer

  Construction,
    DropCeiling,             !- Name
    AC02 Acoustic Ceiling;   !- Outside Layer
   
  Construction,
    OpaqueDoor,   !- Name
    Std Opaque Door Panel;  !- Outside Layer

  Construction,
    AtticRoofDeck,           !- Name
    F12 Asphalt shingles,    !- Outside Layer
    G02 16mm plywood;        !- Layer 2
 
  Construction,
    int_wall,                !- Name
    G01 13mm gypsum board,   !- Outside Layer
    G01 13mm gypsum board;   !- Layer 2
 
  Construction,
    ext_slab_8in_with_carpet,!- Name
    200mm Normalweight concrete floor,  !- Outside Layer
    CP02 CARPET PAD;         !- Layer 2
 
  Construction,
    ext_slab_8in,            !- Name
    200mm Normalweight concrete floor;  !- Outside Layer
 
  Construction,
    ext_slab_6in_with_carpet,!- Name
    150mm Normalweight concrete floor,  !- Outside Layer
    CP02 CARPET PAD;         !- Layer 2
 
  Construction,
    ext_slab_6in,            !- Name
    150mm Normalweight concrete floor;  !- Outside Layer
 
  Construction,
    int_slab_floor,          !- Name
    100mm Normalweight concrete floor,  !- Outside Layer
    CP02 CARPET PAD;         !- Layer 2
 
  Construction,
    int_slab_ceiling,        !- Name
    CP02 CARPET PAD,         !- Outside Layer
    100mm Normalweight concrete floor;  !- Layer 2
 
  Construction,
    basement_wall,           !- Name
    M10 200mm concrete block basement wall;  !- Outside Layer
 
  Construction,
    int_wood_floor,          !- Name
    AC02 Acoustic Ceiling,   !- Outside Layer
    G02 16mm plywood,        !- Layer 2
    CP02 CARPET PAD;         !- Layer 3
 
  Construction,
    ext_soffit_floor,          !- Name
    G02 16mm plywood;   !- Outside Layer
 
  Construction,
    nonres_roof,                   !- Name
        Nonres_Roof_Insulation,   !- Outside Layer
        G01 16mm gypsum board;  !- Layer #2


  Construction,
    res_roof,                   !- Name
        Res_Roof_Insulation,   !- Outside Layer
        G01 16mm gypsum board;  !- Layer #2


  Construction,
    semiheated_roof,                   !- Name
        Semiheated_Roof_Insulation,   !- Outside Layer
        G01 16mm gypsum board;  !- Layer #2


  Construction,
    nonres_roof_floor,               !- Name - Other side zone surface definition for nonres_roof
        G01 16mm gypsum board,  !- Outside Layer
        Nonres_Roof_Insulation;   !- Layer #2

  Construction,
    res_roof_floor,               !- Name - Other side zone surface definition for res_roof
        G01 16mm gypsum board,  !- Outside Layer
        Res_Roof_Insulation;   !- Layer #2

  Construction,
    semiheated_roof_floor,               !- Name - Other side zone surface definition for semiheated_roof
        G01 16mm gypsum board,  !- Outside Layer
        Semiheated_Roof_Insulation;   !- Layer #2



  Construction,
    nonres_ext_wall,               !- Name
    F07 25mm stucco,               !- Outside Layer
    G01 16mm gypsum board,         !- Layer #2
    Nonres_Exterior_Wall_Insulation,      !- Layer #3
    G01 16mm gypsum board;         !- Layer #4


  Construction,
[...]
    25.56,                   !- Maximum Indoor Temperature {C}
    ,                        !- Maximum Indoor Temperature Schedule Name
    -100,                    !- Delta Temperature {deltaC}
    ,                        !- Delta Temperature Schedule Name
    15.56,                   !- Minimum Outdoor Temperature {C}
    ,                        !- Minimum Outdoor Temperature Schedule Name
    26.67,                   !- Maximum Outdoor Temperature {C}
    ,                        !- Maximum Outdoor Temperature Schedule Name
    40;                      !- Maximum Wind Speed {m/s}

  ZoneVentilation:WindandStackOpenArea,
    GUESTROOM401 Sliding Door Ventilation,  !- Name
    GUESTROOM401,            !- Zone Name
    0.0021,                  !- Opening Area {m2}
    Sliding_Doors_Ventilation_Availability_SCH,  !- Opening Area Fraction Schedule Name
    autocalculate,           !- Opening Effectiveness {dimensionless}
    0,                       !- Effective Angle {deg}
    5.7909,                  !- Height Difference {m}
    autocalculate,           !- Discharge Coefficient for Opening
    18.89,                   !- Minimum Indoor Temperature {C}
    ,                        !- Minimum Indoor Temperature Schedule Name
    25.56,                   !- Maximum Indoor Temperature {C}
    ,                        !- Maximum Indoor Temperature Schedule Name
    -100,                    !- Delta Temperature {deltaC}
    ,                        !- Delta Temperature Schedule Name
    15.56,                   !- Minimum Outdoor Temperature {C}
    ,                        !- Minimum Outdoor Temperature Schedule Name
    26.67,                   !- Maximum Outdoor Temperature {C}
    ,                        !- Maximum Outdoor Temperature Schedule Name
    40;                      !- Maximum Wind Speed {m/s}

  ZoneVentilation:WindandStackOpenArea,
    GUESTROOM409_412 Sliding Door Ventilation,  !- Name
    GUESTROOM409_412,        !- Zone Name
    0.0021,                  !- Opening Area {m2}
    Sliding_Doors_Ventilation_Availability_SCH,  !- Opening Area Fraction Schedule Name
    autocalculate,           !- Opening Effectiveness {dimensionless}
    0,                       !- Effective Angle {deg}
    5.7909,                  !- Height Difference {m}
    autocalculate,           !- Discharge Coefficient for Opening
    18.89,                   !- Minimum Indoor Temperature {C}
    ,                        !- Minimum Indoor Temperature Schedule Name
    25.56,                   !- Maximum Indoor Temperature {C}
    ,                        !- Maximum Indoor Temperature Schedule Name
    -100,                    !- Delta Temperature {deltaC}
    ,                        !- Delta Temperature Schedule Name
    15.56,                   !- Minimum Outdoor Temperature {C}
    ,                        !- Minimum Outdoor Temperature Schedule Name
    26.67,                   !- Maximum Outdoor Temperature {C}
    ,                        !- Maximum Outdoor Temperature Schedule Name
    40;                      !- Maximum Wind Speed {m/s}

  ZoneVentilation:WindandStackOpenArea,
    GUESTROOM104 Sliding Door Ventilation,  !- Name
    GUESTROOM104,            !- Zone Name
    0.0021,                  !- Opening Area {m2}
    Sliding_Doors_Ventilation_Availability_SCH,  !- Opening Area Fraction Schedule Name
    autocalculate,           !- Opening Effectiveness {dimensionless}
    180,                     !- Effective Angle {deg}
    5.7909,                  !- Height Difference {m}
    autocalculate,           !- Discharge Coefficient for Opening
    18.89,                   !- Minimum Indoor Temperature {C}
    ,                        !- Minimum Indoor Temperature Schedule Name
    25.56,                   !- Maximum Indoor Temperature {C}
    ,                        !- Maximum Indoor Temperature Schedule Name
    -100,                    !- Delta Temperature {deltaC}
    ,                        !- Delta Temperature Schedule Name
    15.56,                   !- Minimum Outdoor Temperature {C}
    ,                        !- Minimum Outdoor Temperature Schedule Name
    26.67,                   !- Maximum Outdoor Temperature {C}
    ,                        !- Maximum Outdoor Temperature Schedule Name
    40;                      !- Maximum Wind Speed {m/s}

  ZoneVentilation:WindandStackOpenArea,
    GUESTROOM105 Sliding Door Ventilation,  !- Name
    GUESTROOM105,            !- Zone Name
    0.0021,                  !- Opening Area {m2}
    Sliding_Doors_Ventilation_Availability_SCH,  !- Opening Area Fraction Schedule Name
    autocalculate,           !- Opening Effectiveness {dimensionless}
    180,                     !- Effective Angle {deg}
    5.7909,                  !- Height Difference {m}
    autocalculate,           !- Discharge Coefficient for Opening
    18.89,                   !- Minimum Indoor Temperature {C}
    ,                        !- Minimum Indoor Temperature Schedule Name
    25.56,                   !- Maximum Indoor Temperature {C}
    ,                        !- Maximum Indoor Temperature Schedule Name
    -100,                    !- Delta Temperature {deltaC}
    ,                        !- Delta Temperature Schedule Name
    15.56,                   !- Minimum Outdoor Temperature {C}
    ,                        !- Minimum Outdoor Temperature Schedule Name
    26.67,                   !- Maximum Outdoor Temperature {C}
    ,                        !- Maximum Outdoor Temperature Schedule Name
    40;                      !- Maximum Wind Speed {m/s}

  ZoneVentilation:WindandStackOpenArea,
    GUESTROOM214 Sliding Door Ventilation,  !- Name
    GUESTROOM214,            !- Zone Name
    0.0021,                  !- Opening Area {m2}
    Sliding_Doors_Ventilation_Availability_SCH,  !- Opening Area Fraction Schedule Name
    autocalculate,           !- Opening Effectiveness {dimensionless}
    180,                     !- Effective Angle {deg}
    5.7909,                  !- Height Difference {m}
    autocalculate,           !- Discharge Coefficient for Opening
    18.89,                   !- Minimum Indoor Temperature {C}
    ,                        !- Minimum Indoor Temperature Schedule Name
    25.56,                   !- Maximum Indoor Temperature {C}
    ,                        !- Maximum Indoor Temperature Schedule Name
    -100,                    !- Delta Temperature {deltaC}
    ,                        !- Delta Temperature Schedule Name
    15.56,                   !- Minimum Outdoor Temperature {C}
    ,                        !- Minimum Outdoor Temperature Schedule Name
    26.67,                   !- Maximum Outdoor Temperature {C}
    ,                        !- Maximum Outdoor Temperature Schedule Name
    40;                      !- Maximum Wind Speed {m/s}

  ZoneVentilation:WindandStackOpenArea,
    GUESTROOM219 Sliding Door Ventilation,  !- Name
    GUESTROOM219,            !- Zone Name
    0.0021,                  !- Opening Area {m2}
    Sliding_Doors_Ventilation_Availability_SCH,  !- Opening Area Fraction Schedule Name
    autocalculate,           !- Opening Effectiveness {dimensionless}
    180,                     !- Effective Angle {deg}
    5.7909,                  !- Height Difference {m}
    autocalculate,           !- Discharge Coefficient for Opening
    18.89,                   !- Minimum Indoor Temperature {C}
    ,                        !- Minimum Indoor Temperature Schedule Name
    25.56,                   !- Maximum Indoor Temperature {C}
    ,                        !- Maximum Indoor Temperature Schedule Name
    -100,                    !- Delta Temperature {deltaC}
    ,                        !- Delta Temperature Schedule Name
    15.56,                   !- Minimum Outdoor Temperature {C}
    ,                        !- Minimum Outdoor Temperature Schedule Name
    26.67,                   !- Maximum Outdoor Temperature {C}
    ,                        !- Maximum Outdoor Temperature Schedule Name
    40;                      !- Maximum Wind Speed {m/s}

  ZoneVentilation:WindandStackOpenArea,
    GUESTROOM220_223 Sliding Door Ventilation,  !- Name
    GUESTROOM220_223,        !- Zone Name
    0.0021,                  !- Opening Area {m2}
    Sliding_Doors_Ventilation_Availability_SCH,  !- Opening Area Fraction Schedule Name
    autocalculate,           !- Opening Effectiveness {dimensionless}
    180,                     !- Effective Angle {deg}
    5.7909,                  !- Height Difference {m}
    autocalculate,           !- Discharge Coefficient for Opening
    18.89,                   !- Minimum Indoor Temperature {C}
    ,                        !- Minimum Indoor Temperature Schedule Name
    25.56,                   !- Maximum Indoor Temperature {C}
    ,                        !- Maximum Indoor Temperature Schedule Name
    -100,                    !- Delta Temperature {deltaC}
    ,                        !- Delta Temperature Schedule Name
    15.56,                   !- Minimum Outdoor Temperature {C}
    ,                        !- Minimum Outdoor Temperature Schedule Name
    26.67,                   !- Maximum Outdoor Temperature {C}
    ,                        !- Maximum Outdoor Temperature Schedule Name
    40;                      !- Maximum Wind Speed {m/s}

  ZoneVentilation:WindandStackOpenArea,
    GUESTROOM224 Sliding Door Ventilation,  !- Name
    GUESTROOM224,            !- Zone Name
    0.0021,                  !- Opening Area {m2}
    Sliding_Doors_Ventilation_Availability_SCH,  !- Opening Area Fraction Schedule Name
    autocalculate,           !- Opening Effectiveness {dimensionless}
    180,                     !- Effective Angle {deg}
    5.7909,                  !- Height Difference {m}
    autocalculate,           !- Discharge Coefficient for Opening
    18.89,                   !- Minimum Indoor Temperature {C}
    ,                        !- Minimum Indoor Temperature Schedule Name
    25.56,                   !- Maximum Indoor Temperature {C}
    ,                        !- Maximum Indoor Temperature Schedule Name
    -100,                    !- Delta Temperature {deltaC}
    ,                        !- Delta Temperature Schedule Name
    15.56,                   !- Minimum Outdoor Temperature {C}
    ,                        !- Minimum Outdoor Temperature Schedule Name
    26.67,                   !- Maximum Outdoor Temperature {C}
    ,                        !- Maximum Outdoor Temperature Schedule Name
    40;                      !- Maximum Wind Speed {m/s}

  ZoneVentilation:WindandStackOpenArea,
    GUESTROOM314 Sliding Door Ventilation,  !- Name
    GUESTROOM314,            !- Zone Name
    0.0021,                  !- Opening Area {m2}
    Sliding_Doors_Ventilation_Availability_SCH,  !- Opening Area Fraction Schedule Name
    autocalculate,           !- Opening Effectiveness {dimensionless}
    180,                     !- Effective Angle {deg}
    5.7909,                  !- Height Difference {m}
    autocalculate,           !- Discharge Coefficient for Opening
    18.89,                   !- Minimum Indoor Temperature {C}
    ,                        !- Minimum Indoor Temperature Schedule Name
    25.56,                   !- Maximum Indoor Temperature {C}
    ,                        !- Maximum Indoor Temperature Schedule Name
    -100,                    !- Delta Temperature {deltaC}
    ,                        !- Delta Temperature Schedule Name
    15.56,                   !- Minimum Outdoor Temperature {C}
    ,                        !- Minimum Outdoor Temperature Schedule Name
    26.67,                   !- Maximum Outdoor Temperature {C}
    ,                        !- Maximum Outdoor Temperature Schedule Name
    40;                      !- Maximum Wind Speed {m/s}

  ZoneVentilation:WindandStackOpenArea,
    GUESTROOM315_318 Sliding Door Ventilation,  !- Name
    GUESTROOM315_318,        !- Zone Name
    0.0021,                  !- Opening Area {m2}
    Sliding_Doors_Ventilation_Availability_SCH,  !- Opening Area Fraction Schedule Name
    autocalculate,           !- Opening Effectiveness {dimensionless}
    180,                     !- Effective Angle {deg}
    5.7909,                  !- Height Difference {m}
    autocalculate,           !- Discharge Coefficient for Opening
    18.89,                   !- Minimum Indoor Temperature {C}
    ,                        !- Minimum Indoor Temperature Schedule Name
    25.56,                   !- Maximum Indoor Temperature {C}
    ,                        !- Maximum Indoor Temperature Schedule Name
    -100,                    !- Delta Temperature {deltaC}
    ,                        !- Delta Temperature Schedule Name
    15.56,                   !- Minimum Outdoor Temperature {C}
    ,                        !- Minimum Outdoor Temperature Schedule Name
    26.67,                   !- Maximum Outdoor Temperature {C}
    ,                        !- Maximum Outdoor Temperature Schedule Name
    40;                      !- Maximum Wind Speed {m/s}

  ZoneVentilation:WindandStackOpenArea,
    GUESTROOM320_323 Sliding Door Ventilation,  !- Name
    GUESTROOM320_323,        !- Zone Name
    0.0021,                  !- Opening Area {m2}
    Sliding_Doors_Ventilation_Availability_SCH,  !- Opening Area Fraction Schedule Name
    autocalculate,           !- Opening Effectiveness {dimensionless}
    180,                     !- Effective Angle {deg}
    5.7909,                  !- Height Difference {m}
    autocalculate,           !- Discharge Coefficient for Opening
    18.89,                   !- Minimum Indoor Temperature {C}
    ,                        !- Minimum Indoor Temperature Schedule Name
    25.56,                   !- Maximum Indoor Temperature {C}
    ,                        !- Maximum Indoor Temperature Schedule Name
    -100,                    !- Delta Temperature {deltaC}
    ,                        !- Delta Temperature Schedule Name
    15.56,                   !- Minimum Outdoor Temperature {C}
    ,                        !- Minimum Outdoor Temperature Schedule Name
    26.67,                   !- Maximum Outdoor Temperature {C}
    ,                        !- Maximum Outdoor Temperature Schedule Name
    40;                      !- Maximum Wind Speed {m/s}

  ZoneVentilation:WindandStackOpenArea,
    GUESTROOM415_418 Sliding Door Ventilation,  !- Name
    GUESTROOM415_418,        !- Zone Name
    0.0021,                  !- Opening Area {m2}
    Sliding_Doors_Ventilation_Availability_SCH,  !- Opening Area Fraction Schedule Name
    autocalculate,           !- Opening Effectiveness {dimensionless}
    180,                     !- Effective Angle {deg}
    5.7909,                  !- Height Difference {m}
    autocalculate,           !- Discharge Coefficient for Opening
    18.89,                   !- Minimum Indoor Temperature {C}
    ,                        !- Minimum Indoor Temperature Schedule Name
    25.56,                   !- Maximum Indoor Temperature {C}
    ,                        !- Maximum Indoor Temperature Schedule Name
    -100,                    !- Delta Temperature {deltaC}
    ,                        !- Delta Temperature Schedule Name
    15.56,                   !- Minimum Outdoor Temperature {C}
    ,                        !- Minimum Outdoor Temperature Schedule Name
    26.67,                   !- Maximum Outdoor Temperature {C}
    ,                        !- Maximum Outdoor Temperature Schedule Name
    40;                      !- Maximum Wind Speed {m/s}

  ZoneVentilation:WindandStackOpenArea,
    GUESTROOM419 Sliding Door Ventilation,  !- Name
    GUESTROOM419,            !- Zone Name
    0.0021,                  !- Opening Area {m2}
    Sliding_Doors_Ventilation_Availability_SCH,  !- Opening Area Fraction Schedule Name
    autocalculate,           !- Opening Effectiveness {dimensionless}
    180,                     !- Effective Angle {deg}
    5.7909,                  !- Height Difference {m}
    autocalculate,           !- Discharge Coefficient for Opening
    18.89,                   !- Minimum Indoor Temperature {C}
    ,                        !- Minimum Indoor Temperature Schedule Name
    25.56,                   !- Maximum Indoor Temperature {C}
    ,                        !- Maximum Indoor Temperature Schedule Name
    -100,                    !- Delta Temperature {deltaC}
    ,                        !- Delta Temperature Schedule Name
    15.56,                   !- Minimum Outdoor Temperature {C}
    ,                        !- Minimum Outdoor Temperature Schedule Name
    26.67,                   !- Maximum Outdoor Temperature {C}
    ,                        !- Maximum Outdoor Temperature Schedule Name
    40;                      !- Maximum Wind Speed {m/s}

  ZoneVentilation:WindandStackOpenArea,
    GUESTROOM420_423 Sliding Door Ventilation,  !- Name
    GUESTROOM420_423,        !- Zone Name
    0.0021,                  !- Opening Area {m2}
    Sliding_Doors_Ventilation_Availability_SCH,  !- Opening Area Fraction Schedule Name
    autocalculate,           !- Opening Effectiveness {dimensionless}
    180,                     !- Effective Angle {deg}
    5.7909,                  !- Height Difference {m}
    autocalculate,           !- Discharge Coefficient for Opening
    18.89,                   !- Minimum Indoor Temperature {C}
    ,                        !- Minimum Indoor Temperature Schedule Name
    25.56,                   !- Maximum Indoor Temperature {C}
    ,                        !- Maximum Indoor Temperature Schedule Name
    -100,                    !- Delta Temperature {deltaC}
    ,                        !- Delta Temperature Schedule Name
    15.56,                   !- Minimum Outdoor Temperature {C}
    ,                        !- Minimum Outdoor Temperature Schedule Name
    26.67,                   !- Maximum Outdoor Temperature {C}
    ,                        !- Maximum Outdoor Temperature Schedule Name
    40;                      !- Maximum Wind Speed {m/s}

  ZoneVentilation:WindandStackOpenArea,
    GUESTROOM424 Sliding Door Ventilation,  !- Name
    GUESTROOM424,            !- Zone Name
    0.0021,                  !- Opening Area {m2}
    Sliding_Doors_Ventilation_Availability_SCH,  !- Opening Area Fraction Schedule Name
    autocalculate,           !- Opening Effectiveness {dimensionless}
    180,                     !- Effective Angle {deg}
    5.7909,                  !- Height Difference {m}
    autocalculate,           !- Discharge Coefficient for Opening
    18.89,                   !- Minimum Indoor Temperature {C}
    ,                        !- Minimum Indoor Temperature Schedule Name
    25.56,                   !- Maximum Indoor Temperature {C}
    ,                        !- Maximum Indoor Temperature Schedule Name
    -100,                    !- Delta Temperature {deltaC}
    ,                        !- Delta Temperature Schedule Name
    15.56,                   !- Minimum Outdoor Temperature {C}
    ,                        !- Minimum Outdoor Temperature Schedule Name
    26.67,                   !- Maximum Outdoor Temperature {C}
    ,                        !- Maximum Outdoor Temperature Schedule Name
    40;                      !- Maximum Wind Speed {m/s}

  Schedule:Compact,
    Sliding_Doors_Ventilation_Availability_SCH,  !- Name
    Fraction,                !- Schedule Type Limits Name
    Through: 12/31,          !- Field 1
    For: WinterDesignDay SummerDesignDay, !- Field 2
    Until: 24:00,            !- Field 3
    0,                      !- Field 4
    For: Allotherdays,       !- Field 5
    Until: 6:00,             !- Field 6
    0,                      !- Field 7
    Until: 9:00,
    1,      
    Until: 16:00,
    0,     
    Until: 22:00,            !- Field 8
    1,                      !- Field 9
    Until: 24:00,            !- Field 10
    0;                      !- Field 11