Version,9.0;
!-   ===========  ALL OBJECTS IN CLASS: SIMULATIONCONTROL ===========

  SimulationControl,
    Yes,                     !- Do Zone Sizing Calculation
    Yes,                     !- Do System Sizing Calculation
    Yes,                     !- Do Plant Sizing Calculation
    No,         !- Run Simulation for Sizing Periods
    YES;                      !- Run Simulation for Weather File Run Periods

!-   ===========  ALL OBJECTS IN CLASS: BUILDING ===========

  Building,
    Warehouse,               !- Name
    90.00,                   !- North Axis {deg}
    City,                    !- Terrain
    0.0400,                  !- Loads Convergence Tolerance Value
    0.2000,                  !- Temperature Convergence Tolerance Value {deltaC}
    FullInteriorAndExterior, !- Solar Distribution
    25,                      !- Maximum Number of Warmup Days
    6;                       !- Minimum Number of Warmup Days

!-   ===========  ALL OBJECTS IN CLASS: SHADOWCALCULATION ===========

  ShadowCalculation,
    AverageOverDaysInFrequency,  !- Calculation Method
    30,                      !- Calculation Frequency
    15000;                   !- Maximum Figures in Shadow Overlap Calculations

!-   ===========  ALL OBJECTS IN CLASS: SURFACECONVECTIONALGORITHM:INSIDE ===========

  SurfaceConvectionAlgorithm:Inside,TARP;

!-   ===========  ALL OBJECTS IN CLASS: SURFACECONVECTIONALGORITHM:OUTSIDE ===========

  SurfaceConvectionAlgorithm:Outside,TARP;

!-   ===========  ALL OBJECTS IN CLASS: HEATBALANCEALGORITHM ===========

  HeatBalanceAlgorithm,ConductionTransferFunction,200.0000;

!-   ===========  ALL OBJECTS IN CLASS: TIMESTEP ===========

  Timestep,6;

!-   ===========  ALL OBJECTS IN CLASS: CONVERGENCELIMITS ===========

  ConvergenceLimits,
    1,                       !- Minimum System Timestep {minutes}
    20;                      !- Maximum HVAC Iterations

!-   ===========  ALL OBJECTS IN CLASS: RUNPERIOD ===========

  RunPeriod,
    ,                        !- Name
    1,                       !- Begin Month
    1,                       !- Begin Day of Month
    ,                        !- Begin Year
    12,                      !- End Month
    31,                      !- End Day of Month
    ,                        !- End Year
    Sunday,                  !- Day of Week for Start Day
    No,                      !- Use Weather File Holidays and Special Days
    No,                      !- Use Weather File Daylight Saving Period
    No,                     !- Apply Weekend Holiday Rule
    Yes,                     !- Use Weather File Rain Indicators
    Yes;                     !- Use Weather File Snow Indicators

!-   ===========  ALL OBJECTS IN CLASS: RUNPERIODCONTROL:SPECIALDAYS ===========

  RunPeriodControl:SpecialDays,
    New Years Day,           !- Name
    January 1,               !- Start Date
    1,                       !- Duration {days}
    Holiday;                 !- Special Day Type

  RunPeriodControl:SpecialDays,
    Veterans Day,            !- Name
    November 11,             !- Start Date
    1,                       !- Duration {days}
    Holiday;                 !- Special Day Type

  RunPeriodControl:SpecialDays,
    Christmas,               !- Name
    December 25,             !- Start Date
    1,                       !- Duration {days}
    Holiday;                 !- Special Day Type

  RunPeriodControl:SpecialDays,
    Independence Day,        !- Name
    July 4,                  !- Start Date
    1,                       !- Duration {days}
    Holiday;                 !- Special Day Type

  RunPeriodControl:SpecialDays,
    MLK Day,                 !- Name
    3rd Monday in January,   !- Start Date
    1,                       !- Duration {days}
    Holiday;                 !- Special Day Type

  RunPeriodControl:SpecialDays,
    Presidents Day,          !- Name
    3rd Monday in February,  !- Start Date
    1,                       !- Duration {days}
    Holiday;                 !- Special Day Type

  RunPeriodControl:SpecialDays,
    Memorial Day,            !- Name
    Last Monday in May,      !- Start Date
    1,                       !- Duration {days}
    Holiday;                 !- Special Day Type

  RunPeriodControl:SpecialDays,
    Labor Day,               !- Name
    1st Monday in September, !- Start Date
    1,                       !- Duration {days}
    Holiday;                 !- Special Day Type

  RunPeriodControl:SpecialDays,
    Columbus Day,            !- Name
    2nd Monday in October,   !- Start Date
    1,                       !- Duration {days}
    Holiday;                 !- Special Day Type

  RunPeriodControl:SpecialDays,
    Thanksgiving,            !- Name
    4th Thursday in November,!- Start Date
    1,                       !- Duration {days}
    Holiday;                 !- Special Day Type

!-   ===========  ALL OBJECTS IN CLASS: RUNPERIODCONTROL:DAYLIGHTSAVINGTIME ===========

  RunPeriodControl:DaylightSavingTime,
    2nd Sunday in March,     !- Start Date
    1st Sunday in November;  !- End Date

!-   ===========  ALL OBJECTS IN CLASS: LOCATION ===========

{% include "climates" %}

!-   ===========  ALL OBJECTS IN CLASS: MATERIAL:REGULAR-R ===========



!-   ===========  ALL OBJECTS IN CLASS: SCHEDULETYPELIMITS ===========

  ScheduleTypeLimits,
    Any Number;              !- Name

  ScheduleTypeLimits,
    Fraction,                !- Name
    0.0,                     !- Lower Limit Value
    1.0,                     !- Upper Limit Value
    CONTINUOUS;              !- Numeric Type

  ScheduleTypeLimits,
    Temperature,             !- Name
    -60,                     !- Lower Limit Value
    200,                     !- Upper Limit Value
    CONTINUOUS;              !- Numeric Type

  ScheduleTypeLimits,
    On/Off,                  !- Name
    0,                       !- Lower Limit Value
    1,                       !- Upper Limit Value
    DISCRETE;                !- Numeric Type

  ScheduleTypeLimits,
    Control Type,            !- Name
    0,                       !- Lower Limit Value
    4,                       !- Upper Limit Value
    DISCRETE;                !- Numeric Type

  ScheduleTypeLimits,
    Humidity,                !- Name
    10,                      !- Lower Limit Value
    90,                      !- Upper Limit Value
    CONTINUOUS;              !- Numeric Type

  ScheduleTypeLimits,
    Number;                  !- Name

!-   ===========  ALL OBJECTS IN CLASS: SCHEDULE:COMPACT ===========


Schedule:Day:Hourly,
    Office Occ WD,           !- Name
    Fraction,                !- Schedule Type Limits Name
    0,                       !- Hour 1
    0,                       !- Hour 2
    0,                       !- Hour 3
    0,                       !- Hour 4
    0,                       !- Hour 5
    0,                       !- Hour 6
    0.11,                    !- Hour 7
    0.21,                    !- Hour 8
    1,                       !- Hour 9
    1,                       !- Hour 10
    1,                       !- Hour 11
    1,                       !- Hour 12
    0.53,                    !- Hour 13
    1,                       !- Hour 14
    1,                       !- Hour 15
    1,                       !- Hour 16
    1,                       !- Hour 17
    0.32,                    !- Hour 18
    0,                       !- Hour 19
    0,                       !- Hour 20
    0,                       !- Hour 21
    0,                       !- Hour 22
    0,                       !- Hour 23
    0;                       !- Hour 24

Schedule:Day:Hourly,
    Office Occ WEH,          !- Name
    Fraction,                !- Schedule Type Limits Name
    0,                       !- Hour 1
    0,                       !- Hour 2
    0,                       !- Hour 3
    0,                       !- Hour 4
    0,                       !- Hour 5
    0,                       !- Hour 6
    0,                       !- Hour 7
    0,                       !- Hour 8
    0,                       !- Hour 9
    0,                       !- Hour 10
    0,                       !- Hour 11
    0,                       !- Hour 12
    0,                       !- Hour 13
    0,                       !- Hour 14
    0,                       !- Hour 15
    0,                       !- Hour 16
    0,                       !- Hour 17
    0,                       !- Hour 18
    0,                       !- Hour 19
    0,                       !- Hour 20
    0,                       !- Hour 21
    0,                       !- Hour 22
    0,                       !- Hour 23
    0;                       !- Hour 24

Schedule:Day:Hourly,
    Office Light WD,         !- Name
    Fraction,                !- Schedule Type Limits Name
    0.18,                    !- Hour 1
    0.18,                    !- Hour 2
    0.18,                    !- Hour 3
    0.18,                    !- Hour 4
    0.18,                    !- Hour 5
    0.18,                    !- Hour 6
    0.23,                    !- Hour 7
    0.42,                    !- Hour 8
    0.90,                    !- Hour 9
    0.90,                    !- Hour 10
    0.90,                    !- Hour 11
    0.90,                    !- Hour 12
    0.80,                    !- Hour 13
    0.90,                    !- Hour 14
    0.90,                    !- Hour 15
    0.90,                    !- Hour 16
    0.90,                    !- Hour 17
    0.61,                    !- Hour 18
    0.18,                    !- Hour 19
    0.18,                    !- Hour 20
    0.18,                    !- Hour 21
    0.18,                    !- Hour 22
    0.18,                    !- Hour 23
    0.18;                    !- Hour 24

Schedule:Day:Hourly,
    Office Light WD Sensor,  !- Name
    Fraction,                !- Schedule Type Limits Name
    0.18,                    !- Hour 1
    0.18,                    !- Hour 2
    0.18,                    !- Hour 3
    0.18,                    !- Hour 4
    0.18,                    !- Hour 5
    0.18,                    !- Hour 6
    0.23,                    !- Hour 7
    0.42,                    !- Hour 8
    0.77,                    !- Hour 9
    0.77,                    !- Hour 10
    0.77,                    !- Hour 11
    0.77,                    !- Hour 12
    0.68,                    !- Hour 13
    0.77,                    !- Hour 14
    0.77,                    !- Hour 15
    0.77,                    !- Hour 16
    0.77,                    !- Hour 17
    0.61,                    !- Hour 18
    0.18,                    !- Hour 19
    0.18,                    !- Hour 20
    0.18,                    !- Hour 21
    0.18,                    !- Hour 22
    0.18,                    !- Hour 23
    0.18;                    !- Hour 24

Schedule:Day:Hourly,
    Office Light WEH,        !- Name
    Fraction,                !- Schedule Type Limits Name
    0.18,                    !- Hour 1
    0.18,                    !- Hour 2
    0.18,                    !- Hour 3
    0.18,                    !- Hour 4
    0.18,                    !- Hour 5
    0.18,                    !- Hour 6
    0.18,                    !- Hour 7
    0.18,                    !- Hour 8
    0.18,                    !- Hour 9
    0.18,                    !- Hour 10
    0.18,                    !- Hour 11
    0.18,                    !- Hour 12
    0.18,                    !- Hour 13
    0.18,                    !- Hour 14
    0.18,                    !- Hour 15
    0.18,                    !- Hour 16
    0.18,                    !- Hour 17
    0.18,                    !- Hour 18
    0.18,                    !- Hour 19
    0.18,                    !- Hour 20
    0.18,                    !- Hour 21
    0.18,                    !- Hour 22
    0.18,                    !- Hour 23
    0.18;                    !- Hour 24

Schedule:Day:Hourly,
    Office Infiltration WD,  !- Name
    Any Number,              !- Schedule Type Limits Name
    1.00,                    !- Hour 1
    1.00,                    !- Hour 2
    1.00,                    !- Hour 3
    1.00,                    !- Hour 4
    1.00,                    !- Hour 5
    1.00,                    !- Hour 6
    1.00,                    !- Hour 7
    1.25,                    !- Hour 8
    1.25,                    !- Hour 9
    0.50,                    !- Hour 10
    0.50,                    !- Hour 11
    0.50,                    !- Hour 12
    0.50,                    !- Hour 13
    0.50,                    !- Hour 14
    0.50,                    !- Hour 15
    0.50,                    !- Hour 16
    1.25,                    !- Hour 17
    1.25,                    !- Hour 18
    1.00,                    !- Hour 19
    1.00,                    !- Hour 20
    1.00,                    !- Hour 21
    1.00,                    !- Hour 22
    1.00,                    !- Hour 23
    1.00;                    !- Hour 24

Schedule:Day:Hourly,
    Office Infiltration WEH, !- Name
    Fraction,                !- Schedule Type Limits Name
    1.00,                    !- Hour 1
    1.00,                    !- Hour 2
    1.00,                    !- Hour 3
    1.00,                    !- Hour 4
    1.00,                    !- Hour 5
    1.00,                    !- Hour 6
    1.00,                    !- Hour 7
    1.00,                    !- Hour 8
    1.00,                    !- Hour 9
    1.00,                    !- Hour 10
    1.00,                    !- Hour 11
    1.00,                    !- Hour 12
    1.00,                    !- Hour 13
    1.00,                    !- Hour 14
    1.00,                    !- Hour 15
    1.00,                    !- Hour 16
    1.00,                    !- Hour 17
    1.00,                    !- Hour 18
    1.00,                    !- Hour 19
    1.00,                    !- Hour 20
    1.00,                    !- Hour 21
    1.00,                    !- Hour 22
    1.00,                    !- Hour 23
    1.00;                    !- Hour 24

Schedule:Day:Hourly,
    Office Heating WD_YES_OPTIMUM,  !- Name
    Temperature,             !- Schedule Type Limits Name
    15.6,                    !- Hour 1
    15.6,                    !- Hour 2
    15.6,                    !- Hour 3
    15.6,                    !- Hour 4
    15.6,                    !- Hour 5
    15.6,                    !- Hour 6
    17.8,                    !- Hour 7
    20.0,                    !- Hour 8
    21.1,                    !- Hour 9
    21.1,                    !- Hour 10
    21.1,                    !- Hour 11
    21.1,                    !- Hour 12
    21.1,                    !- Hour 13
    21.1,                    !- Hour 14
    21.1,                    !- Hour 15
    21.1,                    !- Hour 16
    21.1,                    !- Hour 17
    21.1,                    !- Hour 18
    15.6,                    !- Hour 19
    15.6,                    !- Hour 20
    15.6,                    !- Hour 21
    15.6,                    !- Hour 22
    15.6,                    !- Hour 23
    15.6;                    !- Hour 24

Schedule:Day:Hourly,
    Office Heating WD_NO_OPTIMUM,  !- Name
    Temperature,             !- Schedule Type Limits Name
    15.6,                    !- Hour 1
    15.6,                    !- Hour 2
    15.6,                    !- Hour 3
    15.6,                    !- Hour 4
    15.6,                    !- Hour 5
    15.6,                    !- Hour 6
    21.1,                    !- Hour 7
    21.1,                    !- Hour 8
    21.1,                    !- Hour 9
    21.1,                    !- Hour 10
    21.1,                    !- Hour 11
    21.1,                    !- Hour 12
    21.1,                    !- Hour 13
    21.1,                    !- Hour 14
    21.1,                    !- Hour 15
    21.1,                    !- Hour 16
    21.1,                    !- Hour 17
    21.1,                    !- Hour 18
    15.6,                    !- Hour 19
    15.6,                    !- Hour 20
    15.6,                    !- Hour 21
    15.6,                    !- Hour 22
    15.6,                    !- Hour 23
    15.6;                    !- Hour 24

Schedule:Day:Hourly,
    Office Heating WEH,      !- Name
    Temperature,             !- Schedule Type Limits Name
    15.6,                    !- Hour 1
    15.6,                    !- Hour 2
    15.6,                    !- Hour 3
    15.6,                    !- Hour 4
    15.6,                    !- Hour 5
    15.6,                    !- Hour 6
    15.6,                    !- Hour 7
    15.6,                    !- Hour 8
    15.6,                    !- Hour 9
    15.6,                    !- Hour 10
    15.6,                    !- Hour 11
    15.6,                    !- Hour 12
    15.6,                    !- Hour 13
    15.6,                    !- Hour 14
    15.6,                    !- Hour 15
    15.6,                    !- Hour 16
    15.6,                    !- Hour 17
    15.6,                    !- Hour 18
    15.6,                    !- Hour 19
    15.6,                    !- Hour 20
    15.6,                    !- Hour 21
    15.6,                    !- Hour 22
    15.6,                    !- Hour 23
    15.6;                    !- Hour 24

Schedule:Day:Hourly,
    Office Cooling WD_YES_OPTIMUM,  !- Name
    Temperature,             !- Schedule Type Limits Name
    29.4,                    !- Hour 1
    29.4,                    !- Hour 2
    29.4,                    !- Hour 3
    29.4,                    !- Hour 4
    29.4,                    !- Hour 5
    29.4,                    !- Hour 6
    27.8,                    !- Hour 7
    25.6,                    !- Hour 8
    23.9,                    !- Hour 9
    23.9,                    !- Hour 10
    23.9,                    !- Hour 11
    23.9,                    !- Hour 12
    23.9,                    !- Hour 13
    23.9,                    !- Hour 14
    23.9,                    !- Hour 15
    23.9,                    !- Hour 16
    23.9,                    !- Hour 17
    23.9,                    !- Hour 18
    29.4,                    !- Hour 19
    29.4,                    !- Hour 20
    29.4,                    !- Hour 21
    29.4,                    !- Hour 22
    29.4,                    !- Hour 23
    29.4;                    !- Hour 24

Schedule:Day:Hourly,
    Office Cooling WD_NO_OPTIMUM,  !- Name
    Temperature,             !- Schedule Type Limits Name
    29.4,                    !- Hour 1
    29.4,                    !- Hour 2
    29.4,                    !- Hour 3
    29.4,                    !- Hour 4
    29.4,                    !- Hour 5
    29.4,                    !- Hour 6
    23.9,                    !- Hour 7
    23.9,                    !- Hour 8
    23.9,                    !- Hour 9
    23.9,                    !- Hour 10
    23.9,                    !- Hour 11
    23.9,                    !- Hour 12
    23.9,                    !- Hour 13
    23.9,                    !- Hour 14
    23.9,                    !- Hour 15
    23.9,                    !- Hour 16
    23.9,                    !- Hour 17
    23.9,                    !- Hour 18
    29.4,                    !- Hour 19
    29.4,                    !- Hour 20
    29.4,                    !- Hour 21
    29.4,                    !- Hour 22
    29.4,                    !- Hour 23
    29.4;                    !- Hour 24

Schedule:Day:Hourly,
    Office Cooling WD_NO_SETBACK,  !- Name
    Temperature,             !- Schedule Type Limits Name
    23.9,                    !- Hour 1
    23.9,                    !- Hour 2
    23.9,                    !- Hour 3
    23.9,                    !- Hour 4
    23.9,                    !- Hour 5
    23.9,                    !- Hour 6
    23.9,                    !- Hour 7
    23.9,                    !- Hour 8
    23.9,                    !- Hour 9
    23.9,                    !- Hour 10
    23.9,                    !- Hour 11
    23.9,                    !- Hour 12
    23.9,                    !- Hour 13
    23.9,                    !- Hour 14
    23.9,                    !- Hour 15
    23.9,                    !- Hour 16
    23.9,                    !- Hour 17
    23.9,                    !- Hour 18
    23.9,                    !- Hour 19
    23.9,                    !- Hour 20
    23.9,                    !- Hour 21
    23.9,                    !- Hour 22
    23.9,                    !- Hour 23
    23.9;                    !- Hour 24

Schedule:Day:Hourly,
    Office Cooling WEH,      !- Name
    Temperature,             !- Schedule Type Limits Name
    29.4,                    !- Hour 1
    29.4,                    !- Hour 2
    29.4,                    !- Hour 3
    29.4,                    !- Hour 4
    29.4,                    !- Hour 5
    29.4,                    !- Hour 6
    29.4,                    !- Hour 7
    29.4,                    !- Hour 8
    29.4,                    !- Hour 9
    29.4,                    !- Hour 10
    29.4,                    !- Hour 11
    29.4,                    !- Hour 12
    29.4,                    !- Hour 13
    29.4,                    !- Hour 14
    29.4,                    !- Hour 15
    29.4,                    !- Hour 16
    29.4,                    !- Hour 17
    29.4,                    !- Hour 18
    29.4,                    !- Hour 19
    29.4,                    !- Hour 20
    29.4,                    !- Hour 21
    29.4,                    !- Hour 22
    29.4,                    !- Hour 23
    29.4;                    !- Hour 24

Schedule:Day:Hourly,
    Office FAN WD,           !- Name
    Fraction,                !- Schedule Type Limits Name
    0,                       !- Hour 1
    0,                       !- Hour 2
    0,                       !- Hour 3
    0,                       !- Hour 4
    0,                       !- Hour 5
    0,                       !- Hour 6
    0,                       !- Hour 7
    1,                       !- Hour 8
    1,                       !- Hour 9
    1,                       !- Hour 10
    1,                       !- Hour 11
    1,                       !- Hour 12
    1,                       !- Hour 13
    1,                       !- Hour 14
    1,                       !- Hour 15
    1,                       !- Hour 16
    1,                       !- Hour 17
    1,                       !- Hour 18
    0,                       !- Hour 19
    0,                       !- Hour 20
    0,                       !- Hour 21
    0,                       !- Hour 22
    0,                       !- Hour 23
    0;                       !- Hour 24

Schedule:Day:Hourly,
    Office FAN WEH,          !- Name
    Fraction,                !- Schedule Type Limits Name
    0,                       !- Hour 1
    0,                       !- Hour 2
    0,                       !- Hour 3
    0,                       !- Hour 4
    0,                       !- Hour 5
    0,                       !- Hour 6
    0,                       !- Hour 7
    0,                       !- Hour 8
    0,                       !- Hour 9
    0,                       !- Hour 10
    0,                       !- Hour 11
    0,                       !- Hour 12
    0,                       !- Hour 13
    0,                       !- Hour 14
    0,                       !- Hour 15
    0,                       !- Hour 16
    0,                       !- Hour 17
    0,                       !- Hour 18
    0,                       !- Hour 19
    0,                       !- Hour 20
    0,                       !- Hour 21
    0,                       !- Hour 22
    0,                       !- Hour 23
    0;                       !- Hour 24

Schedule:Day:Hourly,
    Office DHW WD,           !- Name
    Fraction,                !- Schedule Type Limits Name
    0.000,                   !- Hour 1
    0.000,                   !- Hour 2
    0.000,                   !- Hour 3
    0.000,                   !- Hour 4
    0.000,                   !- Hour 5
    0.000,                   !- Hour 6
    0.050,                   !- Hour 7
    0.101,                   !- Hour 8
    0.399,                   !- Hour 9
    0.501,                   !- Hour 10
    0.501,                   !- Hour 11
    0.696,                   !- Hour 12
    0.900,                   !- Hour 13
    0.798,                   !- Hour 14
    0.696,                   !- Hour 15
    0.798,                   !- Hour 16
    0.297,                   !- Hour 17
    0.050,                   !- Hour 18
    0.000,                   !- Hour 19
    0.000,                   !- Hour 20
    0.000,                   !- Hour 21
    0.000,                   !- Hour 22
    0.000,                   !- Hour 23
    0.000;                   !- Hour 24

Schedule:Day:Hourly,
    Office DHW SUNDAY,       !- Name
    Fraction,                !- Schedule Type Limits Name
    0.000,                   !- Hour 1
    0.000,                   !- Hour 2
    0.000,                   !- Hour 3
    0.000,                   !- Hour 4
    0.000,                   !- Hour 5
    0.000,                   !- Hour 6
    0.015,                   !- Hour 7
    0.015,                   !- Hour 8
    0.015,                   !- Hour 9
    0.015,                   !- Hour 10
    0.015,                   !- Hour 11
    0.015,                   !- Hour 12
    0.015,                   !- Hour 13
    0.015,                   !- Hour 14
    0.015,                   !- Hour 15
    0.015,                   !- Hour 16
    0.015,                   !- Hour 17
    0.015,                   !- Hour 18
    0.000,                   !- Hour 19
    0.000,                   !- Hour 20
    0.000,                   !- Hour 21
    0.000,                   !- Hour 22
    0.000,                   !- Hour 23
    0.000;                   !- Hour 24

Schedule:Day:Hourly,
    Office DHW WEH,          !- Name
    Fraction,                !- Schedule Type Limits Name
    0.015,                   !- Hour 1
    0.015,                   !- Hour 2
    0.015,                   !- Hour 3
    0.015,                   !- Hour 4
    0.015,                   !- Hour 5
    0.015,                   !- Hour 6
    0.015,                   !- Hour 7
    0.015,                   !- Hour 8
    0.015,                   !- Hour 9
    0.015,                   !- Hour 10
    0.015,                   !- Hour 11
    0.015,                   !- Hour 12
    0.015,                   !- Hour 13
    0.015,                   !- Hour 14
    0.015,                   !- Hour 15
    0.015,                   !- Hour 16
    0.015,                   !- Hour 17
    0.015,                   !- Hour 18
    0.015,                   !- Hour 19
    0.015,                   !- Hour 20
    0.015,                   !- Hour 21
    0.015,                   !- Hour 22
    0.015,                   !- Hour 23
    0.015;                   !- Hour 24

Schedule:Day:Hourly,
    Storage LIGHT WD,        !- Name
    Fraction,                !- Schedule Type Limits Name
    0.10,                    !- Hour 1
    0.10,                    !- Hour 2
    0.10,                    !- Hour 3
    0.10,                    !- Hour 4
    0.10,                    !- Hour 5
    0.10,                    !- Hour 6
    0.10,                    !- Hour 7
    0.60,                    !- Hour 8
    0.75,                    !- Hour 9
    0.85,                    !- Hour 10
    0.85,                    !- Hour 11
    0.85,                    !- Hour 12
    0.85,                    !- Hour 13
    0.85,                    !- Hour 14
    0.85,                    !- Hour 15
    0.85,                    !- Hour 16
    0.75,                    !- Hour 17
    0.60,                    !- Hour 18
    0.10,                    !- Hour 19
    0.10,                    !- Hour 20
    0.10,                    !- Hour 21
    0.10,                    !- Hour 22
    0.10,                    !- Hour 23
    0.10;                    !- Hour 24

Schedule:Day:Hourly,
    Storage Light WD Sensor, !- Name
    Fraction,                !- Schedule Type Limits Name
    0.10,                    !- Hour 1
    0.10,                    !- Hour 2
    0.10,                    !- Hour 3
    0.10,                    !- Hour 4
    0.10,                    !- Hour 5
    0.10,                    !- Hour 6
    0.10,                    !- Hour 7
    0.60,                    !- Hour 8
    0.64,                    !- Hour 9
    0.72,                    !- Hour 10
    0.72,                    !- Hour 11
    0.72,                    !- Hour 12
    0.64,                    !- Hour 13
    0.72,                    !- Hour 14
    0.72,                    !- Hour 15
    0.7925,                  !- Hour 16
    0.64,                    !- Hour 17
    0.60,                    !- Hour 18
    0.10,                    !- Hour 19
    0.10,                    !- Hour 20
    0.10,                    !- Hour 21
    0.10,                    !- Hour 22
    0.10,                    !- Hour 23
    0.10;                    !- Hour 24

Schedule:Day:Hourly,
    Storage LIGHT WEH,       !- Name
    Fraction,                !- Schedule Type Limits Name
    0.10,                    !- Hour 1
    0.10,                    !- Hour 2
    0.10,                    !- Hour 3
    0.10,                    !- Hour 4
    0.10,                    !- Hour 5
    0.10,                    !- Hour 6
    0.10,                    !- Hour 7
    0.10,                    !- Hour 8
    0.10,                    !- Hour 9
    0.10,                    !- Hour 10
    0.10,                    !- Hour 11
    0.10,                    !- Hour 12
    0.10,                    !- Hour 13
    0.10,                    !- Hour 14
    0.10,                    !- Hour 15
    0.10,                    !- Hour 16
    0.10,                    !- Hour 17
    0.10,                    !- Hour 18
    0.10,                    !- Hour 19
    0.10,                    !- Hour 20
    0.10,                    !- Hour 21
    0.10,                    !- Hour 22
    0.10,                    !- Hour 23
    0.10;                    !- Hour 24

Schedule:Day:Hourly,
    Bulk Storage PLUG WD,    !- Name
    Fraction,                !- Schedule Type Limits Name
    0.25,                    !- Hour 1
    0.25,                    !- Hour 2
    0.25,                    !- Hour 3
    0.25,                    !- Hour 4
    0.25,                    !- Hour 5
    0.25,                    !- Hour 6
    0.25,                    !- Hour 7
    0.25,                    !- Hour 8
    1,                       !- Hour 9
    1,                       !- Hour 10
    1,                       !- Hour 11
    1,                       !- Hour 12
    0.25,                    !- Hour 13
    1,                       !- Hour 14
    1,                       !- Hour 15
    1,                       !- Hour 16
    1,                       !- Hour 17
    0.25,                    !- Hour 18
    0.25,                    !- Hour 19
    0.25,                    !- Hour 20
    0.25,                    !- Hour 21
    0.25,                    !- Hour 22
    0.25,                    !- Hour 23
    0.25;                    !- Hour 24

Schedule:Day:Hourly,
    Bulk Storage PLUG WEH,   !- Name
    Fraction,                !- Schedule Type Limits Name
    0,                       !- Hour 1
    0,                       !- Hour 2
    0,                       !- Hour 3
    0,                       !- Hour 4
    0,                       !- Hour 5
    0,                       !- Hour 6
    0,                       !- Hour 7
    0,                       !- Hour 8
    0,                       !- Hour 9
    0,                       !- Hour 10
    0,                       !- Hour 11
    0,                       !- Hour 12
    0,                       !- Hour 13
    0,                       !- Hour 14
    0,                       !- Hour 15
    0,                       !- Hour 16
    0,                       !- Hour 17
    0,                       !- Hour 18
    0,                       !- Hour 19
    0,                       !- Hour 20
    0,                       !- Hour 21
    0,                       !- Hour 22
    0,                       !- Hour 23
    0;                       !- Hour 24

Schedule:Day:Hourly,
    Fine Storage INFIL WD,   !- Name
    Any Number,              !- Schedule Type Limits Name
    1.0,                     !- Hour 1
    1.0,                     !- Hour 2
    1.0,                     !- Hour 3
    1.0,                     !- Hour 4
    1.0,                     !- Hour 5
    1.0,                     !- Hour 6
    1.0,                     !- Hour 7
    1.25,                    !- Hour 8
    1.25,                    !- Hour 9
    0.5,                     !- Hour 10
    0.5,                     !- Hour 11
    0.5,                     !- Hour 12
    0.5,                     !- Hour 13
    0.5,                     !- Hour 14
    0.5,                     !- Hour 15
    0.5,                     !- Hour 16
    1.25,                    !- Hour 17
    1.25,                    !- Hour 18
    1.0,                     !- Hour 19
    1.0,                     !- Hour 20
    1.0,                     !- Hour 21
    1.0,                     !- Hour 22
    1.0,                     !- Hour 23
    1;                       !- Hour 24

Schedule:Day:Hourly,
    Fine Storage INFIL WEH,  !- Name
    Fraction,                !- Schedule Type Limits Name
    1.0,                     !- Hour 1
    1.0,                     !- Hour 2
    1.0,                     !- Hour 3
    1.0,                     !- Hour 4
    1.0,                     !- Hour 5
    1.0,                     !- Hour 6
    1.0,                     !- Hour 7
    1.0,                     !- Hour 8
    1.0,                     !- Hour 9
    1.0,                     !- Hour 10
    1.0,                     !- Hour 11
    1.0,                     !- Hour 12
    1.0,                     !- Hour 13
    1.0,                     !- Hour 14
    1.0,                     !- Hour 15
    1.0,                     !- Hour 16
    1.0,                     !- Hour 17
    1.0,                     !- Hour 18
    1.0,                     !- Hour 19
    1.0,                     !- Hour 20
    1.0,                     !- Hour 21
    1.0,                     !- Hour 22
    1.0,                     !- Hour 23
    1.0;                     !- Hour 24

Schedule:Day:Hourly,
    Bulk Storage INFIL_Base WD,  !- Name
    Fraction,                !- Schedule Type Limits Name
    0.765,                   !- Hour 1
    0.765,                   !- Hour 2
    0.765,                   !- Hour 3
    0.765,                   !- Hour 4
    0.765,                   !- Hour 5
    0.765,                   !- Hour 6
    0.765,                   !- Hour 7
    0.765,                   !- Hour 8
    1,                       !- Hour 9
    1,                       !- Hour 10
    1,                       !- Hour 11
    1,                       !- Hour 12
    0.765,                   !- Hour 13
    1,                       !- Hour 14
    1,                       !- Hour 15
    1,                       !- Hour 16
    1,                       !- Hour 17
    0.765,                   !- Hour 18
    0.765,                   !- Hour 19
    0.765,                   !- Hour 20
    0.765,                   !- Hour 21
    0.765,                   !- Hour 22
    0.765,                   !- Hour 23
    0.765;                   !- Hour 24

Schedule:Day:Hourly,
    Bulk Storage INFIL_Base WEH,  !- Name
    Fraction,                !- Schedule Type Limits Name
    0.765,                   !- Hour 1
    0.765,                   !- Hour 2
    0.765,                   !- Hour 3
    0.765,                   !- Hour 4
    0.765,                   !- Hour 5
    0.765,                   !- Hour 6
    0.765,                   !- Hour 7
    0.765,                   !- Hour 8
    0.765,                   !- Hour 9
    0.765,                   !- Hour 10
    0.765,                   !- Hour 11
    0.765,                   !- Hour 12
    0.765,                   !- Hour 13
    0.765,                   !- Hour 14
    0.765,                   !- Hour 15
    0.765,                   !- Hour 16
    0.765,                   !- Hour 17
    0.765,                   !- Hour 18
    0.765,                   !- Hour 19
    0.765,                   !- Hour 20
    0.765,                   !- Hour 21
    0.765,                   !- Hour 22
    0.765,                   !- Hour 23
    0.765;                   !- Hour 24

Schedule:Day:Hourly,
    Bulk Storage INFIL_Adva WD,  !- Name
    Fraction,                !- Schedule Type Limits Name
    0.75,                    !- Hour 1
    0.75,                    !- Hour 2
    0.75,                    !- Hour 3
    0.75,                    !- Hour 4
    0.75,                    !- Hour 5
    0.75,                    !- Hour 6
    0.75,                    !- Hour 7
    0.75,                    !- Hour 8
    1,                       !- Hour 9
    1,                       !- Hour 10
    1,                       !- Hour 11
    1,                       !- Hour 12
    0.75,                    !- Hour 13
    1,                       !- Hour 14
    1,                       !- Hour 15
    1,                       !- Hour 16
    1,                       !- Hour 17
    0.75,                    !- Hour 18
    0.75,                    !- Hour 19
    0.75,                    !- Hour 20
    0.75,                    !- Hour 21
    0.75,                    !- Hour 22
    0.75,                    !- Hour 23
    0.75;                    !- Hour 24

Schedule:Day:Hourly,
    Bulk Storage INFIL_Adva WEH,  !- Name
    Fraction,                !- Schedule Type Limits Name
    0.75,                    !- Hour 1
    0.75,                    !- Hour 2
    0.75,                    !- Hour 3
    0.75,                    !- Hour 4
    0.75,                    !- Hour 5
    0.75,                    !- Hour 6
    0.75,                    !- Hour 7
    0.75,                    !- Hour 8
    0.75,                    !- Hour 9
    0.75,                    !- Hour 10
    0.75,                    !- Hour 11
    0.75,                    !- Hour 12
    0.75,                    !- Hour 13
    0.75,                    !- Hour 14
    0.75,                    !- Hour 15
    0.75,                    !- Hour 16
    0.75,                    !- Hour 17
    0.75,                    !- Hour 18
    0.75,                    !- Hour 19
    0.75,                    !- Hour 20
    0.75,                    !- Hour 21
    0.75,                    !- Hour 22
    0.75,                    !- Hour 23
    0.75;                    !- Hour 24

Schedule:Day:Hourly,
    Exterior Light Day Schdule,  !- Name
    Fraction,                !- Schedule Type Limits Name
    1,                       !- Hour 1
    1,                       !- Hour 2
    1,                       !- Hour 3
    1,                       !- Hour 4
    1,                       !- Hour 5
    1,                       !- Hour 6
    1,                       !- Hour 7
    1,                       !- Hour 8
    0,                       !- Hour 9
    0,                       !- Hour 10
    0,                       !- Hour 11
    0,                       !- Hour 12
    0,                       !- Hour 13
    0,                       !- Hour 14
    0,                       !- Hour 15
    0,                       !- Hour 16
    0,                       !- Hour 17
    1,                       !- Hour 18
    1,                       !- Hour 19
    1,                       !- Hour 20
    1,                       !- Hour 21
    1,                       !- Hour 22
    1,                       !- Hour 23
    1;                       !- Hour 24

Schedule:Day:Hourly,
    SYS Day   1,             !- Name
    Any Number,              !- Schedule Type Limits Name
    1.00,                    !- Hour 1
    1.00,                    !- Hour 2
    1.00,                    !- Hour 3
    1.00,                    !- Hour 4
    1.00,                    !- Hour 5
    1.00,                    !- Hour 6
    1.00,                    !- Hour 7
    1.00,                    !- Hour 8
    1.00,                    !- Hour 9
    1.00,                    !- Hour 10
    1.00,                    !- Hour 11
    1.00,                    !- Hour 12
    1.00,                    !- Hour 13
    1.00,                    !- Hour 14
    1.00,                    !- Hour 15
    1.00,                    !- Hour 16
    1.00,                    !- Hour 17
    1.00,                    !- Hour 18
    1.00,                    !- Hour 19
    1.00,                    !- Hour 20
    1.00,                    !- Hour 21
    1.00,                    !- Hour 22
    1.00,                    !- Hour 23
    1.00;                    !- Hour 24


!-   ===========  ALL OBJECTS IN CLASS: SCHEDULE:WEEK:DAILY ===========

Schedule:Week:Daily,
    Office Light Wk Schedule,!- Name
    Office Light WEH,        !- Sunday Schedule:Day Name
    Office Light WD,         !- Monday Schedule:Day Name
    Office Light WD,         !- Tuesday Schedule:Day Name
    Office Light WD,         !- Wednesday Schedule:Day Name
    Office Light WD,         !- Thursday Schedule:Day Name
    Office Light WD,         !- Friday Schedule:Day Name
    Office Light WD,         !- Saturday Schedule:Day Name
    Office Light WEH,        !- Holiday Schedule:Day Name
    Office Light WD,         !- SummerDesignDay Schedule:Day Name
    Office Light WD,         !- WinterDesignDay Schedule:Day Name
    Office Light WD,         !- CustomDay1 Schedule:Day Name
    Office Light WD;         !- CustomDay2 Schedule:Day Name

Schedule:Week:Daily,
    Office Light with Sensor Wk Schedule,  !- Name
    Office Light WEH,        !- Sunday Schedule:Day Name
    Office Light WD Sensor,  !- Monday Schedule:Day Name
    Office Light WD Sensor,  !- Tuesday Schedule:Day Name
    Office Light WD Sensor,  !- Wednesday Schedule:Day Name
    Office Light WD Sensor,  !- Thursday Schedule:Day Name
    Office Light WD Sensor,  !- Friday Schedule:Day Name
    Office Light WD Sensor,  !- Saturday Schedule:Day Name
    Office Light WEH,        !- Holiday Schedule:Day Name
    Office Light WD Sensor,  !- SummerDesignDay Schedule:Day Name
    Office Light WD Sensor,  !- WinterDesignDay Schedule:Day Name
    Office Light WD Sensor,  !- CustomDay1 Schedule:Day Name
    Office Light WD Sensor;  !- CustomDay2 Schedule:Day Name

Schedule:Week:Daily,
    Office People Wk Schedule,  !- Name
    Office Occ WEH,          !- Sunday Schedule:Day Name
    Office Occ WD,           !- Monday Schedule:Day Name
    Office Occ WD,           !- Tuesday Schedule:Day Name
    Office Occ WD,           !- Wednesday Schedule:Day Name
    Office Occ WD,           !- Thursday Schedule:Day Name
    Office Occ WD,           !- Friday Schedule:Day Name
    Office Occ WD,           !- Saturday Schedule:Day Name
    Office Occ WEH,          !- Holiday Schedule:Day Name
    Office Occ WD,           !- SummerDesignDay Schedule:Day Name
    Office Occ WD,           !- WinterDesignDay Schedule:Day Name
    Office Occ WD,           !- CustomDay1 Schedule:Day Name
    Office Occ WD;           !- CustomDay2 Schedule:Day Name

Schedule:Week:Daily,
    Office Infil Wk Schedule,!- Name
    Office Infiltration WEH, !- Sunday Schedule:Day Name
    Office Infiltration WD,  !- Monday Schedule:Day Name
    Office Infiltration WD,  !- Tuesday Schedule:Day Name
    Office Infiltration WD,  !- Wednesday Schedule:Day Name
    Office Infiltration WD,  !- Thursday Schedule:Day Name
    Office Infiltration WD,  !- Friday Schedule:Day Name
    Office Infiltration WD,  !- Saturday Schedule:Day Name
    Office Infiltration WEH, !- Holiday Schedule:Day Name
    Office Infiltration WD,  !- SummerDesignDay Schedule:Day Name
    Office Infiltration WD,  !- WinterDesignDay Schedule:Day Name
    Office Infiltration WD,  !- CustomDay1 Schedule:Day Name
    Office Infiltration WD;  !- CustomDay2 Schedule:Day Name

Schedule:Week:Daily,
    Office Heating Wk Schedule,  !- Name
    Office Heating WEH,      !- Sunday Schedule:Day Name
    Office Heating WD_NO_OPTIMUM,  !- Monday Schedule:Day Name
    Office Heating WD_NO_OPTIMUM,  !- Tuesday Schedule:Day Name
    Office Heating WD_NO_OPTIMUM,  !- Wednesday Schedule:Day Name
    Office Heating WD_NO_OPTIMUM,  !- Thursday Schedule:Day Name
    Office Heating WD_NO_OPTIMUM,  !- Friday Schedule:Day Name
    Office Heating WD_NO_OPTIMUM,  !- Saturday Schedule:Day Name
    Office Heating WEH,      !- Holiday Schedule:Day Name
    Office Heating WD_YES_OPTIMUM,  !- SummerDesignDay Schedule:Day Name
    Office Heating WD_YES_OPTIMUM,  !- WinterDesignDay Schedule:Day Name
    Office Heating WD_NO_OPTIMUM,  !- CustomDay1 Schedule:Day Name
    Office Heating WD_NO_OPTIMUM;  !- CustomDay2 Schedule:Day Name

Schedule:Week:Daily,
    Office Cooling Wk Schedule,  !- Name
    Office Cooling WEH,      !- Sunday Schedule:Day Name
    Office Cooling WD_NO_SETBACK,  !- Monday Schedule:Day Name
    Office Cooling WD_NO_SETBACK,  !- Tuesday Schedule:Day Name
    Office Cooling WD_NO_SETBACK,  !- Wednesday Schedule:Day Name
    Office Cooling WD_NO_SETBACK,  !- Thursday Schedule:Day Name
    Office Cooling WD_NO_SETBACK,  !- Friday Schedule:Day Name
    Office Cooling WD_NO_SETBACK,  !- Saturday Schedule:Day Name
    Office Cooling WEH,      !- Holiday Schedule:Day Name
    Office Cooling WD_YES_OPTIMUM,  !- SummerDesignDay Schedule:Day Name
    Office Cooling WD_YES_OPTIMUM,  !- WinterDesignDay Schedule:Day Name
    Office Cooling WD_NO_SETBACK,  !- CustomDay1 Schedule:Day Name
    Office Cooling WD_NO_SETBACK;  !- CustomDay2 Schedule:Day Name

Schedule:Week:Daily,
    Office Fan Wk Schedule,  !- Name
    Office FAN WEH,          !- Sunday Schedule:Day Name
    Office FAN WD,           !- Monday Schedule:Day Name
    Office FAN WD,           !- Tuesday Schedule:Day Name
    Office FAN WD,           !- Wednesday Schedule:Day Name
    Office FAN WD,           !- Thursday Schedule:Day Name
    Office FAN WD,           !- Friday Schedule:Day Name
    Office FAN WD,           !- Saturday Schedule:Day Name
    Office FAN WEH,          !- Holiday Schedule:Day Name
    Office FAN WD,           !- SummerDesignDay Schedule:Day Name
    Office FAN WD,           !- WinterDesignDay Schedule:Day Name
    Office FAN WD,           !- CustomDay1 Schedule:Day Name
    Office FAN WD;           !- CustomDay2 Schedule:Day Name

Schedule:Week:Daily,
    Office DHW Wk Schedule,  !- Name
    Office DHW WEH,          !- Sunday Schedule:Day Name
    Office DHW WD,           !- Monday Schedule:Day Name
    Office DHW WD,           !- Tuesday Schedule:Day Name
    Office DHW WD,           !- Wednesday Schedule:Day Name
    Office DHW WD,           !- Thursday Schedule:Day Name
    Office DHW WD,           !- Friday Schedule:Day Name
    Office DHW WD,           !- Saturday Schedule:Day Name
    Office DHW WEH,          !- Holiday Schedule:Day Name
    Office DHW WD,           !- SummerDesignDay Schedule:Day Name
    Office DHW WD,           !- WinterDesignDay Schedule:Day Name
    Office DHW WD,           !- CustomDay1 Schedule:Day Name
    Office DHW WD;           !- CustomDay2 Schedule:Day Name

Schedule:Week:Daily,
    Storage Light with Sensor Wk Schedule,  !- Name
    Storage LIGHT WEH,       !- Sunday Schedule:Day Name
    Storage LIGHT WD Sensor, !- Monday Schedule:Day Name
    Storage LIGHT WD Sensor, !- Tuesday Schedule:Day Name
    Storage LIGHT WD Sensor, !- Wednesday Schedule:Day Name
    Storage LIGHT WD Sensor, !- Thursday Schedule:Day Name
    Storage LIGHT WD Sensor, !- Friday Schedule:Day Name
    Storage LIGHT WD Sensor, !- Saturday Schedule:Day Name
    Storage LIGHT WEH,       !- Holiday Schedule:Day Name
    Storage LIGHT WD Sensor, !- SummerDesignDay Schedule:Day Name
    Storage LIGHT WD Sensor, !- WinterDesignDay Schedule:Day Name
    Storage LIGHT WD Sensor, !- CustomDay1 Schedule:Day Name
    Storage LIGHT WD Sensor; !- CustomDay2 Schedule:Day Name

Schedule:Week:Daily,
    Bulk Storage Plug Wk Schedule,  !- Name
    Bulk Storage PLUG WEH,   !- Sunday Schedule:Day Name
    Bulk Storage PLUG WD,    !- Monday Schedule:Day Name
    Bulk Storage PLUG WD,    !- Tuesday Schedule:Day Name
    Bulk Storage PLUG WD,    !- Wednesday Schedule:Day Name
    Bulk Storage PLUG WD,    !- Thursday Schedule:Day Name
    Bulk Storage PLUG WD,    !- Friday Schedule:Day Name
    Bulk Storage PLUG WD,    !- Saturday Schedule:Day Name
    Bulk Storage PLUG WEH,   !- Holiday Schedule:Day Name
    Bulk Storage PLUG WD,    !- SummerDesignDay Schedule:Day Name
    Bulk Storage PLUG WD,    !- WinterDesignDay Schedule:Day Name
    Bulk Storage PLUG WD,    !- CustomDay1 Schedule:Day Name
    Bulk Storage PLUG WD;    !- CustomDay2 Schedule:Day Name

Schedule:Week:Daily,
    Fine Storage Infil Wk Schedule,  !- Name
    Fine Storage INFIL WEH,  !- Sunday Schedule:Day Name
    Fine Storage INFIL WD,   !- Monday Schedule:Day Name
    Fine Storage INFIL WD,   !- Tuesday Schedule:Day Name
    Fine Storage INFIL WD,   !- Wednesday Schedule:Day Name
    Fine Storage INFIL WD,   !- Thursday Schedule:Day Name
    Fine Storage INFIL WD,   !- Friday Schedule:Day Name
    Fine Storage INFIL WD,   !- Saturday Schedule:Day Name
    Fine Storage INFIL WEH,  !- Holiday Schedule:Day Name
    Fine Storage INFIL WD,   !- SummerDesignDay Schedule:Day Name
    Fine Storage INFIL WD,   !- WinterDesignDay Schedule:Day Name
    Fine Storage INFIL WD,   !- CustomDay1 Schedule:Day Name
    Fine Storage INFIL WD;   !- CustomDay2 Schedule:Day Name

Schedule:Week:Daily,
    Bulk Storage Infil_Base Wk Schedule,  !- Name
    Bulk Storage INFIL_Base WEH,  !- Sunday Schedule:Day Name
    Bulk Storage INFIL_Base WD,  !- Monday Schedule:Day Name
    Bulk Storage INFIL_Base WD,  !- Tuesday Schedule:Day Name
    Bulk Storage INFIL_Base WD,  !- Wednesday Schedule:Day Name
    Bulk Storage INFIL_Base WD,  !- Thursday Schedule:Day Name
    Bulk Storage INFIL_Base WD,  !- Friday Schedule:Day Name
    Bulk Storage INFIL_Base WD,  !- Saturday Schedule:Day Name
    Bulk Storage INFIL_Base WEH,  !- Holiday Schedule:Day Name
    Bulk Storage INFIL_Base WD,  !- SummerDesignDay Schedule:Day Name
    Bulk Storage INFIL_Base WD,  !- WinterDesignDay Schedule:Day Name
    Bulk Storage INFIL_Base WD,  !- CustomDay1 Schedule:Day Name
    Bulk Storage INFIL_Base WD;  !- CustomDay2 Schedule:Day Name

Schedule:Week:Daily,
    Bulk Storage Infil_Adva Wk Schedule,  !- Name
    Bulk Storage INFIL_Adva WEH,  !- Sunday Schedule:Day Name
    Bulk Storage INFIL_Adva WD,  !- Monday Schedule:Day Name
    Bulk Storage INFIL_Adva WD,  !- Tuesday Schedule:Day Name
    Bulk Storage INFIL_Adva WD,  !- Wednesday Schedule:Day Name
    Bulk Storage INFIL_Adva WD,  !- Thursday Schedule:Day Name
    Bulk Storage INFIL_Adva WD,  !- Friday Schedule:Day Name
    Bulk Storage INFIL_Adva WD,  !- Saturday Schedule:Day Name
    Bulk Storage INFIL_Adva WEH,  !- Holiday Schedule:Day Name
    Bulk Storage INFIL_Adva WD,  !- SummerDesignDay Schedule:Day Name
    Bulk Storage INFIL_Adva WD,  !- WinterDesignDay Schedule:Day Name
    Bulk Storage INFIL_Adva WD,  !- CustomDay1 Schedule:Day Name
    Bulk Storage INFIL_Adva WD;  !- CustomDay2 Schedule:Day Name

Schedule:Week:Daily,
    Exterior Light Wk Schedule,  !- Name
    Exterior Light Day Schdule,  !- Sunday Schedule:Day Name
    Exterior Light Day Schdule,  !- Monday Schedule:Day Name
    Exterior Light Day Schdule,  !- Tuesday Schedule:Day Name
    Exterior Light Day Schdule,  !- Wednesday Schedule:Day Name
    Exterior Light Day Schdule,  !- Thursday Schedule:Day Name
    Exterior Light Day Schdule,  !- Friday Schedule:Day Name
    Exterior Light Day Schdule,  !- Saturday Schedule:Day Name
    Exterior Light Day Schdule,  !- Holiday Schedule:Day Name
    Exterior Light Day Schdule,  !- SummerDesignDay Schedule:Day Name
    Exterior Light Day Schdule,  !- WinterDesignDay Schedule:Day Name
    Exterior Light Day Schdule,  !- CustomDay1 Schedule:Day Name
    Exterior Light Day Schdule;  !- CustomDay2 Schedule:Day Name

Schedule:Week:Daily,
    SYS-ON,                  !- Name
    SYS Day   1,             !- Sunday Schedule:Day Name
    SYS Day   1,             !- Monday Schedule:Day Name
    SYS Day   1,             !- Tuesday Schedule:Day Name
    SYS Day   1,             !- Wednesday Schedule:Day Name
    SYS Day   1,             !- Thursday Schedule:Day Name
    SYS Day   1,             !- Friday Schedule:Day Name
    SYS Day   1,             !- Saturday Schedule:Day Name
    SYS Day   1,             !- Holiday Schedule:Day Name
    SYS Day   1,             !- SummerDesignDay Schedule:Day Name
    SYS Day   1,             !- WinterDesignDay Schedule:Day Name
    SYS Day   1,             !- CustomDay1 Schedule:Day Name
    SYS Day   1;             !- CustomDay2 Schedule:Day Name

Schedule:Week:Daily,
    Storage Light Wk Schedule,  !- Name
    Storage LIGHT WEH,       !- Sunday Schedule:Day Name
    Storage LIGHT WD,        !- Monday Schedule:Day Name
    Storage LIGHT WD,        !- Tuesday Schedule:Day Name
    Storage LIGHT WD,        !- Wednesday Schedule:Day Name
    Storage LIGHT WD,        !- Thursday Schedule:Day Name
    Storage LIGHT WD,        !- Friday Schedule:Day Name
    Storage LIGHT WD,        !- Saturday Schedule:Day Name
    Storage LIGHT WEH,       !- Holiday Schedule:Day Name
    Storage LIGHT WD,        !- SummerDesignDay Schedule:Day Name
    Storage LIGHT WD,        !- WinterDesignDay Schedule:Day Name
    Storage LIGHT WD,        !- CustomDay1 Schedule:Day Name
    Storage LIGHT WD;        !- CustomDay2 Schedule:Day Name


!-   ===========  ALL OBJECTS IN CLASS: SCHEDULE:YEAR ===========

Schedule:Year,
    Office Light Schedule,   !- Name
    Fraction,                !- Schedule Type Limits Name
    Office Light Wk Schedule,!- Schedule:Week Name 1
    1,                       !- Start Month 1
    1,                       !- Start Day 1
    12,                      !- End Month 1
    31;                      !- End Day 1

Schedule:Year,
    Office People Schedule,  !- Name
    Fraction,                !- Schedule Type Limits Name
    Office People Wk Schedule,  !- Schedule:Week Name 1
    1,                       !- Start Month 1
    1,                       !- Start Day 1
    12,                      !- End Month 1
    31;                      !- End Day 1

Schedule:Year,
    Office Infil Schedule,   !- Name
    Any Number,              !- Schedule Type Limits Name
    Office Infil Wk Schedule,!- Schedule:Week Name 1
    1,                       !- Start Month 1
    1,                       !- Start Day 1
    12,                      !- End Month 1
    31;                      !- End Day 1

Schedule:Year,
    Office HVAC Schedule,    !- Name
    Temperature,             !- Schedule Type Limits Name
    Office Heating Wk Schedule,  !- Schedule:Week Name 1
    1,                       !- Start Month 1
    1,                       !- Start Day 1
    4,                       !- End Month 1
    30,                      !- End Day 1
    Office Cooling Wk Schedule,  !- Schedule:Week Name 2
    5,                       !- Start Month 2
    1,                       !- Start Day 2
    8,                       !- End Month 2
    31,                      !- End Day 2
    Office Heating Wk Schedule,  !- Schedule:Week Name 3
    9,                       !- Start Month 3
    1,                       !- Start Day 3
    12,                      !- End Month 3
    31;                      !- End Day 3

Schedule:Year,
    Office Fan Schedule,     !- Name
    On-Off Schedule,         !- Schedule Type Limits Name
    Office Fan Wk Schedule,  !- Schedule:Week Name 1
    1,                       !- Start Month 1
    1,                       !- Start Day 1
    12,                      !- End Month 1
    31;                      !- End Day 1

Schedule:Year,
    Office DHW Schedule,     !- Name
    Fraction,                !- Schedule Type Limits Name
    Office DHW Wk Schedule,  !- Schedule:Week Name 1
    1,                       !- Start Month 1
    1,                       !- Start Day 1
    12,                      !- End Month 1
    31;                      !- End Day 1

Schedule:Year,
    Storage Light Schedule,  !- Name
    Fraction,                !- Schedule Type Limits Name
    Storage Light Wk Schedule,  !- Schedule:Week Name 1
    1,                       !- Start Month 1
    1,                       !- Start Day 1
    12,                      !- End Month 1
    31;                      !- End Day 1

Schedule:Year,
    Bulk Storage Plug Schedule,  !- Name
    Fraction,                !- Schedule Type Limits Name
    Bulk Storage Plug Wk Schedule,  !- Schedule:Week Name 1
    1,                       !- Start Month 1
    1,                       !- Start Day 1
    12,                      !- End Month 1
    31;                      !- End Day 1

Schedule:Year,
    Fine Sorage Infil Schedule,  !- Name
    Any Number,              !- Schedule Type Limits Name
    Fine Storage Infil Wk Schedule,  !- Schedule:Week Name 1
    1,                       !- Start Month 1
    1,                       !- Start Day 1
    12,                      !- End Month 1
    31;                      !- End Day 1

Schedule:Year,
    Bulk Storage Infil_Base Schedule,  !- Name
    Any Number,              !- Schedule Type Limits Name
    Bulk Storage Infil_Base Wk Schedule,  !- Schedule:Week Name 1
    1,                       !- Start Month 1
    1,                       !- Start Day 1
    12,                      !- End Month 1
    31;                      !- End Day 1

Schedule:Year,
    Bulk Storage Infil_Adva Schedule,  !- Name
    Any Number,              !- Schedule Type Limits Name
    Bulk Storage Infil_Adva Wk Schedule,  !- Schedule:Week Name 1
    1,                       !- Start Month 1
    1,                       !- Start Day 1
    12,                      !- End Month 1
    31;                      !- End Day 1

Schedule:Year,
    Exterior Light Schedule, !- Name
    Fraction,                !- Schedule Type Limits Name
    Exterior Light Wk Schedule,  !- Schedule:Week Name 1
    1,                       !- Start Month 1
    1,                       !- Start Day 1
    12,                      !- End Month 1
    31;                      !- End Day 1

Schedule:Year,
    Office Heating Schedule, !- Name
    Temperature,             !- Schedule Type Limits Name
    Office Heating Wk Schedule,  !- Schedule:Week Name 1
    1,                       !- Start Month 1
    1,                       !- Start Day 1
    12,                      !- End Month 1
    31;                      !- End Day 1

Schedule:Year,
    Office Cooling Schedule, !- Name
    Temperature,             !- Schedule Type Limits Name
    Office Cooling Wk Schedule,  !- Schedule:Week Name 1
    1,                       !- Start Month 1
    1,                       !- Start Day 1
    12,                      !- End Month 1
    31;                      !- End Day 1

Schedule:Year,
    UnitHeaterAvailability,  !- Name
    Any Number,              !- Schedule Type Limits Name
    SYS-ON,                  !- Schedule:Week Name 1
    1,                       !- Start Month 1
    1,                       !- Start Day 1
    12,                      !- End Month 1
    31;                      !- End Day 1

Schedule:Year,
    UnitVentMaxOA,           !- Name
    Any Number,              !- Schedule Type Limits Name
    SYS-ON,                  !- Schedule:Week Name 1
    1,                       !- Start Month 1
    1,                       !- Start Day 1
    12,                      !- End Month 1
    31;                      !- End Day 1

Schedule:Year,
    Zone3HeatingCoilAvailability,  !- Name
    Any Number,              !- Schedule Type Limits Name
    SYS-ON,                  !- Schedule:Week Name 1
    1,                       !- Start Month 1
    1,                       !- Start Day 1
    12,                      !- End Month 1
    31;                      !- End Day 1

Schedule:Year,
    Office Light with Sensor Schedule,  !- Name
    Fraction,                !- Schedule Type Limits Name
    Office Light with Sensor Wk Schedule,  !- Schedule:Week Name 1
    1,                       !- Start Month 1
    1,                       !- Start Day 1
    12,                      !- End Month 1
    31;                      !- End Day 1

Schedule:Year,
    Storage Light with Sensor Schedule,  !- Name
    Fraction,                !- Schedule Type Limits Name
    Storage Light with Sensor Wk Schedule,  !- Schedule:Week Name 1
    1,                       !- Start Month 1
    1,                       !- Start Day 1
    12,                      !- End Month 1
    31;                      !- End Day 1


!-   ===========  ALL OBJECTS IN CLASS: SCHEDULE:COMPACT ===========

Schedule:Compact,
    Office_Plug_SCH,         !- Name
    Fraction,                !- Schedule Type Limits Name
    Through: 12/31,          !- Field 1
    For: SummerDesignDay,    !- Field 2
    Until: 24:00,            !- Field 3
    1.00,                    !- Field 4
    For: WinterDesignDay,    !- Field 5
    Until: 24:00,            !- Field 6
    0.00,                    !- Field 7
    For: Weekdays Saturday,  !- Field 8
    Until: 06:00,            !- Field 9
    0.3,                     !- Field 10
    Until: 07:00,            !- Field 11
    0.3,                     !- Field 12
    Until: 08:00,            !- Field 13
    0.5,                     !- Field 14
    Until: 12:00,            !- Field 15
    1,                       !- Field 16
    Until: 13:00,            !- Field 17
    0.94,                    !- Field 18
    Until: 17:00,            !- Field 19
    1,                       !- Field 20
    Until: 18:00,            !- Field 21
    0.5,                     !- Field 22
    Until: 24:00,            !- Field 23
    0.3,                     !- Field 24
    For: AllOtherDays,       !- Field 25
    Until: 24:00,            !- Field 26
    0.3;                     !- Field 27

Schedule:Compact,
    BLDG_LIGHT_OFFICE_SCH,   !- Name
    Fraction,                !- Schedule Type Limits Name
    Through: 12/31,          !- Field 1
    For: Weekdays Saturday,  !- Field 2
    Until: 6:00,             !- Field 3
    0.18,                    !- Field 4
    Until: 7:00,             !- Field 5
    0.23,                    !- Field 6
    Until: 8:00,             !- Field 7
    0.42,                    !- Field 8
    Until: 12:00,            !- Field 9
    0.77,                    !- Field 10
    Until: 13:00,            !- Field 11
    0.68,                    !- Field 12
    Until: 17:00,            !- Field 13
    0.77,                    !- Field 14
    Until: 18:00,            !- Field 15
    0.61,                    !- Field 16
    Until: 24:00,            !- Field 17
    0.18,                    !- Field 18
    For: SummerDesignDay,    !- Field 19
    Until: 24:00,            !- Field 20
    1,                       !- Field 21
    For: WinterDesignDay,    !- Field 22
    Until: 24:00,            !- Field 23
    0,                       !- Field 24
    For: Sunday Holidays AllOtherDays,  !- Field 25
    Until: 24:00,            !- Field 26
    0.18;                    !- Field 27

Schedule:Compact,
    BLDG_LIGHT_STORAGE_SCH,  !- Name
    Fraction,                !- Schedule Type Limits Name
    Through: 12/31,          !- Field 1
    For: Weekdays Saturday,  !- Field 2
    Until: 7:00,             !- Field 3
    0.1,                     !- Field 4
    Until: 8:00,             !- Field 5
    0.6,                     !- Field 6
    Until: 9:00,             !- Field 7
    0.75,                    !- Field 8
    Until: 16:00,            !- Field 9
    0.85,                    !- Field 10
    Until: 17:00,            !- Field 11
    0.75,                    !- Field 12
    Until: 18:00,            !- Field 13
    0.6,                     !- Field 14
    Until: 24:00,            !- Field 15
    0.1,                     !- Field 16
    For: SummerDesignDay,    !- Field 17
    Until: 24:00,            !- Field 18
    1,                       !- Field 19
    For: WinterDesignDay,    !- Field 20
    Until: 24:00,            !- Field 21
    0,                       !- Field 22
    For: Sunday Holidays AllOtherDays,  !- Field 23
    Until: 24:00,            !- Field 24
    0.1;                     !- Field 25

Schedule:Compact,
    BLDG_OCC_SCH,            !- Name
    Fraction,                !- Schedule Type Limits Name
    Through: 12/31,          !- Field 1
    For: Weekdays Saturday WinterDesignDay,  !- Field 2
    Until: 06:00,            !- Field 3
    0.00,                    !- Field 4
    Until: 07:00,            !- Field 5
    0.11,                    !- Field 6
    Until: 08:00,            !- Field 7
    0.21,                    !- Field 8
    Until: 12:00,            !- Field 9
    1.00,                    !- Field 10
    Until: 13:00,            !- Field 11
    0.53,                    !- Field 12
    Until: 17:00,            !- Field 13
    1.00,                    !- Field 14
    Until: 18:00,            !- Field 15
    0.32,                    !- Field 16
    Until: 24:00,            !- Field 17
    0.00,                    !- Field 18
    For: SummerDesignDay,    !- Field 19
    Until: 06:00,            !- Field 20
    0.000000001,             !- Field 21
    Until: 07:00,            !- Field 22
    0.11,                    !- Field 23
    Until: 08:00,            !- Field 24
    0.21,                    !- Field 25
    Until: 12:00,            !- Field 26
    1.00,                    !- Field 27
    Until: 13:00,            !- Field 28
    0.53,                    !- Field 29
    Until: 17:00,            !- Field 30
    1.00,                    !- Field 31
    Until: 18:00,            !- Field 32
    0.32,                    !- Field 33
    Until: 24:00,            !- Field 34
    0.000000001,             !- Field 35
    For: Sunday Holidays AllOtherDays,  !- Field 36
    Until: 24:00,            !- Field 37
    0.0;                     !- Field 38

Schedule:Compact,
    Office Activity Schedule,!- Name
    Any Number,              !- Schedule Type Limits Name
    Through: 12/31,          !- Field 1
    For: AllDays,            !- Field 2
    Until: 24:00,            !- Field 3
    131.85;                  !- Field 4

Schedule:Compact,
    FanSched,                !- Name
    Fraction,                !- Schedule Type Limits Name
    Through: 12/31,          !- Field 1
    For: WeekDays Saturday CustomDay1 CustomDay2,  !- Field 2
    Until: 7:00,             !- Field 3
    0.0,                     !- Field 4
    Until: 18:00,            !- Field 5
    1.0,                     !- Field 6
    Until: 24:00,            !- Field 7
    0.0,                     !- Field 8
    For: Sunday Holiday,     !- Field 9
    Until: 24:00,            !- Field 10
    0.0,                     !- Field 11
    For: SummerDesignDay,    !- Field 12
    Until: 24:00,            !- Field 13
    1.0,                     !- Field 14
    For: WinterDesignDay,    !- Field 15
    Until: 24:00,            !- Field 16
    1.0;                     !- Field 17

Schedule:Compact,
    MinOA_MotorizedDamper_Sched,  !- Name
    Fraction,                !- Schedule Type Limits Name
    Through: 12/31,          !- Field 1
    For: WeekDays Saturday CustomDay1 CustomDay2,  !- Field 2
    Until: 8:00,             !- Field 3
    0.0,                     !- Field 4
    Until: 18:00,            !- Field 5
    1.0,                     !- Field 6
    Until: 24:00,            !- Field 7
    0.0,                     !- Field 8
    For: Sunday Holiday,     !- Field 9
    Until: 24:00,            !- Field 10
    0.0,                     !- Field 11
    For: SummerDesignDay,    !- Field 12
    Until: 24:00,            !- Field 13
    1.0,                     !- Field 14
    For: WinterDesignDay,    !- Field 15
    Until: 24:00,            !- Field 16
    1.0;                     !- Field 17

Schedule:Compact,
    Bulk Storage Heating Setpoint Schedule,  !- Name
    Temperature,             !- Schedule Type Limits Name
    Through: 12/31,          !- Field 1
    For: AllDays,            !- Field 2
    Until: 24:00,            !- Field 3
    10.0;                    !- Field 4

Schedule:Compact,
    ZoneControlSchedule,     !- Name
    Control Type,            !- Schedule Type Limits Name
    Through: 12/31,          !- Field 1
    For: AllDays,            !- Field 2
    Until: 24:00,            !- Field 3
    1;                       !- Field 4

Schedule:Compact,
    Hot Water Setpoint Temp Schedule,  !- Name
    Any Number,              !- Schedule Type Limits Name
    THROUGH: 12/31,          !- Field 1
    FOR: AllDays,            !- Field 2
    UNTIL: 24:00,            !- Field 3
    60.0;                    !- Field 4

Schedule:Compact,
    ALWAYS_OFF,              !- Name
    On/Off,                  !- Schedule Type Limits Name
    Through: 12/31,          !- Field 1
    For: AllDays,            !- Field 2
    Until: 24:00,            !- Field 3
    0;                       !- Field 4

Schedule:Compact,
    ALWAYS_ON,               !- Name
    On/Off,                  !- Schedule Type Limits Name
    Through: 12/31,          !- Field 1
    For: AllDays,            !- Field 2
    Until: 24:00,            !- Field 3
    1;                       !- Field 4

Schedule:Compact,
    Exterior_Lgt_ALWAYS_ON,  !- Name
    Fraction,                !- Schedule Type Limits Name
    Through: 12/31,          !- Field 1
    For: AllDays,            !- Field 2
    Until: 24:00,            !- Field 3
    1;                       !- Field 4

Schedule:Compact,
    Exterior_Lgt_189_1,      !- Name
    Fraction,                !- Schedule Type Limits Name
    Through:12/31,           !- Field 1
    For:Weekdays,            !- Field 2
    Until:  9:00,            !- Field 3
    0.5,                     !- Field 4
    Until: 18:00,            !- Field 5
    1.0,                     !- Field 6
    Until: 24:00,            !- Field 7
    0.5,                     !- Field 8
    For:Saturday,            !- Field 9
    Until: 24:00,            !- Field 10
    0.5,                     !- Field 11
    For:Sunday Holidays AllOtherDays,  !- Field 12
    Until: 24:00,            !- Field 13
    0.5;                     !- Field 14

Schedule:Compact,
    Always Off Schedule,     !- Name
    Fraction,                !- Schedule Type Limits Name
    THROUGH: 12/31,          !- Field 1
    FOR: AllDays,            !- Field 2
    UNTIL: 24:00,            !- Field 3
    0;                       !- Field 4

Schedule:Compact,
    COMPACT HVAC-ALWAYS 1,   !- Name
    COMPACT HVAC Any Number, !- Schedule Type Limits Name
    Through: 12/31,          !- Field 1
    For: AllDays,            !- Field 2
    Until: 24:00,            !- Field 3
    1;                       !- Field 4

Schedule:Compact,
    COMPACT HVAC-ALWAYS 4,   !- Name
    COMPACT HVAC Any Number, !- Schedule Type Limits Name
    Through: 12/31,          !- Field 1
    For: AllDays,            !- Field 2
    Until: 24:00,            !- Field 3
    4;                       !- Field 4

Schedule:Compact,
    Fine Storage Heating Setpoint Schedule,  !- Name
    Temperature,             !- Schedule Type Limits Name
    Through: 12/31,          !- Field 1
    For: AllDays,            !- Field 2
    Until: 24:00,            !- Field 3
    15.56;                   !- Field 4

Schedule:Compact,
    Fine Storage Cooling Setpoint Schedule,  !- Name
    Temperature,             !- Schedule Type Limits Name
    Through: 12/31,          !- Field 1
    For: AllDays,            !- Field 2
    Until: 24:00,            !- Field 3
    26.7;                    !- Field 4

Schedule:Compact,
    OA Damper Off during off hrs Schedule,  !- Name
    Fraction,                !- Schedule Type Limits Name
    Through: 12/31,          !- Field 1
    For: WeekDay Saturday CustomDay1 CustomDay2,  !- Field 2
    Until: 8:00,             !- Field 3
    0.0,                     !- Field 4
    Until: 17:00,            !- Field 5
    1.0,                     !- Field 6
    Until: 24:00,            !- Field 7
    0.0,                     !- Field 8
    For: Sunday Holiday,     !- Field 9
    Until: 24:00,            !- Field 10
    0.0,                     !- Field 11
    For: SummerDesignDay,    !- Field 12
    Until: 24:00,            !- Field 13
    1.0,                     !- Field 14
    For: WinterDesignDay,    !- Field 15
    Until: 24:00,            !- Field 16
    1.0;                     !- Field 17

Schedule:Compact,
    OA Damper Always ON Schedule,  !- Name
    Fraction,                !- Schedule Type Limits Name
    Through: 12/31,          !- Field 1
    For: AllDays,            !- Field 2
    Until: 24:00,            !- Field 3
    1;                       !- Field 4

Schedule:Compact,
    MinOA_Sched,             !- Name
    fraction,                !- Schedule Type Limits Name
    Through: 12/31,          !- Field 1
    For: AllDays,            !- Field 2
    Until: 24:00,            !- Field 3
    1.0;                     !- Field 4

Schedule:Compact,
    Always On Schedule,      !- Name
    Fraction,                !- Schedule Type Limits Name
    THROUGH: 12/31,          !- Field 1
    FOR: AllDays,            !- Field 2
    UNTIL: 24:00,            !- Field 3
    1;                       !- Field 4

Schedule:Compact,
    Exterior_Ltg_Sch,        !- Name
    Fraction,                !- Schedule Type Limits Name
    Through: 12/31,          !- Field 1
    For: AllDays,            !- Field 2
    Until: 07:00,            !- Field 3
    1.0,                     !- Field 4
    Until: 19:00,            !- Field 5
    0.0,                     !- Field 6
    Until: 24:00,            !- Field 7
    1.0;                     !- Field 8

Schedule:Compact,
    INFIL_Door_Opening_SCH,  !- Name
    fraction,                !- Schedule Type Limits Name
    Through: 12/31,          !- Field 1
    For: Weekdays,           !- Field 2
    Until: 06:00,            !- Field 3
    0.0,                     !- Field 4
    Until: 07:00,            !- Field 5
    0.144,                   !- Field 6
    Until: 08:00,            !- Field 7
    1.0,                     !- Field 8
    Until: 12:00,            !- Field 9
    0.144,                   !- Field 10
    Until: 13:00,            !- Field 11
    1.0,                     !- Field 12
    Until: 17:00,            !- Field 13
    0.144,                   !- Field 14
    Until: 18:00,            !- Field 15
    1.0,                     !- Field 16
    Until: 19:00,            !- Field 17
    0.144,                   !- Field 18
    Until: 24:00,            !- Field 19
    0.0,                     !- Field 20
    For: Saturday Sunday Holidays AllOtherDays,  !- Field 21
    Until: 24:00,            !- Field 22
    0.0;                     !- Field 23

Schedule:Compact,
    Exterior_lighting_schedule_a,  !- Name
    fraction,                !- Schedule Type Limits Name
    Through:12/31,           !- Field 1
    For:AllDays,             !- Field 2
    Until: 06:00,            !- Field 3
    0,                       !- Field 4
    Until: 24:00,            !- Field 5
    1;                       !- Field 6

Schedule:Compact,
    Exterior_lighting_schedule_b,  !- Name
    fraction,                !- Schedule Type Limits Name
    Through:12/31,           !- Field 1
    For:AllDays,             !- Field 2
    Until: 06:00,            !- Field 3
    0.7,                     !- Field 4
    Until: 24:00,            !- Field 5
    1;                       !- Field 6

Schedule:Compact,
    Exterior_lighting_schedule_a_IECC2015,  !- Name
    fraction,                !- Schedule Type Limits Name
    Through:12/31,           !- Field 1
    For:Weekdays SummerDesignDay,  !- Field 2
    Until: 08:00,            !- Field 3
    0,                       !- Field 4
    Until: 18:00,            !- Field 5
    1,                       !- Field 6
    Until: 24:00,            !- Field 7
    0,                       !- Field 8
    For:Saturdays,           !- Field 9
    Until: 24:00,            !- Field 10
    0,                       !- Field 11
    For:AllOtherDays,        !- Field 12
    Until: 24:00,            !- Field 13
    0;                       !- Field 14

Schedule:Compact,
    Exterior_lighting_schedule_b_2016,  !- Name
    fraction,                !- Schedule Type Limits Name
    Through:12/31,           !- Field 1
    For:AllDays,             !- Field 2
    Until: 06:00,            !- Field 3
    0.5,                     !- Field 4
    Until: 24:00,            !- Field 5
    1;                       !- Field 6

Schedule:Compact,
    Exterior_lighting_schedule_c_2016,  !- Name
    fraction,                !- Schedule Type Limits Name
    Through:12/31,           !- Field 1
    For:AllDays,             !- Field 2
    Until: 06:00,            !- Field 3
    0.5,                     !- Field 4
    Until: 20:00,            !- Field 5
    1,                       !- Field 6
    Until: 24:00,            !- Field 7
    0.5;                     !- Field 8


!-   ===========  ALL OBJECTS IN CLASS: SCHEDULE:CONSTANT ===========

Schedule:Constant,
    SZ_system_OA_Max_Frac_SCH,  !- Name
    Fraction,                !- Schedule Type Limits Name
    0.7;                     !- Hourly Value


{% include "MinOAFraction" %}

{% include "HVACOperationSchd" %}

{% include "HTGSETP_SCH_NO_OPTIMUM" %}

{% include "CLGSETP_SCH_NO_OPTIMUM" %}
!
!-   ===========  ALL OBJECTS IN CLASS: MATERIAL:REGULAR ===========
 
{% include "wall_roof" %} 
 
  Material,
    Std Wood 6inch,          !- Name
    MediumSmooth,            !- Roughness
    0.15,                    !- Thickness {m}
    0.12,                    !- Conductivity {W/m-K}
    540.0000,                !- Density {kg/m3}
    1210,                    !- Specific Heat {J/kg-K}
    0.9000000,               !- Thermal Absorptance
    0.7000000,               !- Solar Absorptance
    0.7000000;               !- Visible Absorptance
 
  Material,
    AC02 Acoustic Ceiling,   !- Name
    MediumSmooth,            !- Roughness
    1.2700000E-02,           !- Thickness {m}
    5.7000000E-02,           !- Conductivity {W/m-K}
    288.0000,                !- Density {kg/m3}
    1339.000,                !- Specific Heat {J/kg-K}
    0.9000000,               !- Thermal Absorptance
    0.7000000,               !- Solar Absorptance
    0.2000000;               !- Visible Absorptance
 
  Material,
    F07 25mm stucco,         !- Name
    Smooth,                  !- Roughness
    0.0254,                  !- Thickness {m}
    0.72,                    !- Conductivity {W/m-K}
    1856,                    !- Density {kg/m3}
    840,                     !- Specific Heat {J/kg-K}
    0.9,                     !- Thermal Absorptance
    0.7,                     !- Solar Absorptance
    0.7;                     !- Visible Absorptance
 
  Material,
    F08 Metal surface,       !- Name
    Smooth,                  !- Roughness
    0.0008,                  !- Thickness {m}
    45.28,                   !- Conductivity {W/m-K}
    7824,                    !- Density {kg/m3}
    500;                     !- Specific Heat {J/kg-K}

  Material,
    F08 Metal roof surface,       !- Name
    Smooth,                  !- Roughness
    0.0008,                  !- Thickness {m}
    45.28,                   !- Conductivity {W/m-K}
    7824,                    !- Density {kg/m3}
    500,                     !- Specific Heat {J/kg-K}
    0.9,                     !- Absorptance:Thermal
    0.7;                     !- Absorptance:Solar
    
  Material,
    F12 Asphalt shingles,    !- Name
    VeryRough,               !- Roughness
    0.0032,                  !- Thickness {m}
    0.04,                    !- Conductivity {W/m-K}
    1120,                    !- Density {kg/m3}
[...]
    23.88889,                !- Minimum Value of y
    46.11111,                !- Maximum Value of y
    ,                        !- Minimum Curve Output
    ,                        !- Maximum Curve Output
    Temperature,             !- Input Unit Type for X
    Temperature,             !- Input Unit Type for Y
    Dimensionless;           !- Output Unit Type

Curve:Biquadratic,
    HPACCoolCapFT Speed 4,   !- Name
    0.476428E+00,            !- Coefficient1 Constant
    0.401147E-01,            !- Coefficient2 x
    0.226411E-03,            !- Coefficient3 x**2
    -0.827136E-03,           !- Coefficient4 y
    -0.732240E-05,           !- Coefficient5 y**2
    -0.446278E-03,           !- Coefficient6 x*y
    12.77778,                !- Minimum Value of x
    23.88889,                !- Maximum Value of x
    23.88889,                !- Minimum Value of y
    46.11111,                !- Maximum Value of y
    ,                        !- Minimum Curve Output
    ,                        !- Maximum Curve Output
    Temperature,             !- Input Unit Type for X
    Temperature,             !- Input Unit Type for Y
    Dimensionless;           !- Output Unit Type




! operation condition varies
Curve:Biquadratic,
    HAPCCoolWHFT Speed 1,    !- Name
    1.0,                     !- Coefficient1 Constant
    0.0,                     !- Coefficient2 x
    0.0,                     !- Coefficient3 x**2
    0.0,                     !- Coefficient4 y
    0.0,                     !- Coefficient5 y**2
    0.0,                     !- Coefficient6 x*y
    0,                       !- Minimum Value of x
    50,                      !- Maximum Value of x
    0,                       !- Minimum Value of y
    50,                      !- Maximum Value of y
    ,                        !- Minimum Curve Output
    ,                        !- Maximum Curve Output
    Temperature,             !- Input Unit Type for X
    Temperature,             !- Input Unit Type for Y
    Dimensionless;           !- Output Unit Type

! operation condition varies
Curve:Biquadratic,
    HAPCCoolWHFT Speed 2,    !- Name
    1.0,                     !- Coefficient1 Constant
    0.0,                     !- Coefficient2 x
    0.0,                     !- Coefficient3 x**2
    0.0,                     !- Coefficient4 y
    0.0,                     !- Coefficient5 y**2
    0.0,                     !- Coefficient6 x*y
    0,                       !- Minimum Value of x
    50,                      !- Maximum Value of x
    0,                       !- Minimum Value of y
    50,                      !- Maximum Value of y
    ,                        !- Minimum Curve Output
    ,                        !- Maximum Curve Output
    Temperature,             !- Input Unit Type for X
    Temperature,             !- Input Unit Type for Y
    Dimensionless;           !- Output Unit Type

! operation condition varies
Curve:Biquadratic,
    HAPCCoolWHFT Speed 3,    !- Name
    1.0,                     !- Coefficient1 Constant
    0.0,                     !- Coefficient2 x
    0.0,                     !- Coefficient3 x**2
    0.0,                     !- Coefficient4 y
    0.0,                     !- Coefficient5 y**2
    0.0,                     !- Coefficient6 x*y
    0,                       !- Minimum Value of x
    50,                      !- Maximum Value of x
    0,                       !- Minimum Value of y
    50,                      !- Maximum Value of y
    ,                        !- Minimum Curve Output
    ,                        !- Maximum Curve Output
    Temperature,             !- Input Unit Type for X
    Temperature,             !- Input Unit Type for Y
    Dimensionless;           !- Output Unit Type

! operation condition varies
Curve:Biquadratic,
    HAPCCoolWHFT Speed 4,    !- Name
    1.0,                     !- Coefficient1 Constant
    0.0,                     !- Coefficient2 x
    0.0,                     !- Coefficient3 x**2
    0.0,                     !- Coefficient4 y
    0.0,                     !- Coefficient5 y**2
    0.0,                     !- Coefficient6 x*y
    0,                       !- Minimum Value of x
    50,                      !- Maximum Value of x
    0,                       !- Minimum Value of y
    50,                      !- Maximum Value of y
    ,                        !- Minimum Curve Output
    ,                        !- Maximum Curve Output
    Temperature,             !- Input Unit Type for X
    Temperature,             !- Input Unit Type for Y
    Dimensionless;           !- Output Unit Type


!-   ===========  ALL OBJECTS IN CLASS: OUTPUT:VARIABLEDICTIONARY ===========

Output:VariableDictionary,
    regular,                 !- Key Field
    Name;                    !- Sort Option


!-   ===========  ALL OBJECTS IN CLASS: OUTPUT:TABLE:SUMMARYREPORTS ===========

!  Output:Variable,*,Site Outdoor Air Drybulb Temperature,Hourly;
!  Output:Variable,*,Site Outdoor Air Wetbulb Temperature,Hourly;
!  Output:Variable,HVACOperationSchd,Schedule Value,Hourly;
!
!  ! Outdoor Air Flow
!
!  Output:Variable,PSZ-AC:1_OAInlet Node,System Node VolFlowRate,Hourly;
!  Output:Variable,PSZ-AC:2_OAInlet Node,System Node VolFlowRate,Hourly;
!  Output:Variable,PSZ-AC:3_OAInlet Node,System Node VolFlowRate,Hourly;
!  Output:Variable,PSZ-AC:4_OAInlet Node,System Node VolFlowRate,Hourly;
!  Output:Variable,PSZ-AC:5_OAInlet Node,System Node VolFlowRate,Hourly;
!
!  ! Return Air Flow
!
!  Output:Variable,PSZ-AC:1 Supply Equipment Inlet Node,System Node VolFlowRate,Hourly;
!  Output:Variable,PSZ-AC:2 Supply Equipment Inlet Node,System Node VolFlowRate,Hourly;
!  Output:Variable,PSZ-AC:3 Supply Equipment Inlet Node,System Node VolFlowRate,Hourly;
!  Output:Variable,PSZ-AC:4 Supply Equipment Inlet Node,System Node VolFlowRate,Hourly;
!  Output:Variable,PSZ-AC:5 Supply Equipment Inlet Node,System Node VolFlowRate,Hourly;
!
!  ! Return Air Tdb
!
!  Output:Variable,PSZ-AC:1 Supply Equipment Inlet Node,System Node Temperature,Hourly;
!  Output:Variable,PSZ-AC:2 Supply Equipment Inlet Node,System Node Temperature,Hourly;
!  Output:Variable,PSZ-AC:3 Supply Equipment Inlet Node,System Node Temperature,Hourly;
!  Output:Variable,PSZ-AC:4 Supply Equipment Inlet Node,System Node Temperature,Hourly;
!  Output:Variable,PSZ-AC:5 Supply Equipment Inlet Node,System Node Temperature,Hourly;
!
!  ! Return Air Twb
!
!  Output:Variable,PSZ-AC:1 Supply Equipment Inlet Node,System Node Wetbulb Temperature,Hourly;
!  Output:Variable,PSZ-AC:2 Supply Equipment Inlet Node,System Node Wetbulb Temperature,Hourly;
!  Output:Variable,PSZ-AC:3 Supply Equipment Inlet Node,System Node Wetbulb Temperature,Hourly;
!  Output:Variable,PSZ-AC:4 Supply Equipment Inlet Node,System Node Wetbulb Temperature,Hourly;
!  Output:Variable,PSZ-AC:5 Supply Equipment Inlet Node,System Node Wetbulb Temperature,Hourly;
!
!  ! supply Air Flow
!
!  Output:Variable,PSZ-AC:1 Supply Equipment Outlet Node,System Node VolFlowRate,Hourly;
!  Output:Variable,PSZ-AC:2 Supply Equipment Outlet Node,System Node VolFlowRate,Hourly;
!  Output:Variable,PSZ-AC:3 Supply Equipment Outlet Node,System Node VolFlowRate,Hourly;
!  Output:Variable,PSZ-AC:4 Supply Equipment Outlet Node,System Node VolFlowRate,Hourly;
!  Output:Variable,PSZ-AC:5 Supply Equipment Outlet Node,System Node VolFlowRate,Hourly;
!
!  ! supply Air Tdb
!
!  Output:Variable,PSZ-AC:1 Supply Equipment Outlet Node,System Node Temperature,Hourly;
!  Output:Variable,PSZ-AC:2 Supply Equipment Outlet Node,System Node Temperature,Hourly;
!  Output:Variable,PSZ-AC:3 Supply Equipment Outlet Node,System Node Temperature,Hourly;
!  Output:Variable,PSZ-AC:4 Supply Equipment Outlet Node,System Node Temperature,Hourly;
!  Output:Variable,PSZ-AC:5 Supply Equipment Outlet Node,System Node Temperature,Hourly;
!
!  ! supply Air Twb
!
!  Output:Variable,PSZ-AC:1 Supply Equipment Outlet Node,System Node Wetbulb Temperature,Hourly;
!  Output:Variable,PSZ-AC:2 Supply Equipment Outlet Node,System Node Wetbulb Temperature,Hourly;
!  Output:Variable,PSZ-AC:3 Supply Equipment Outlet Node,System Node Wetbulb Temperature,Hourly;
!  Output:Variable,PSZ-AC:4 Supply Equipment Outlet Node,System Node Wetbulb Temperature,Hourly;
!  Output:Variable,PSZ-AC:5 Supply Equipment Outlet Node,System Node Wetbulb Temperature,Hourly;
!
!  ! Coil Load
!
!  Output:Variable,*,Air System Cooling Coil Total Cooling Energy,Hourly;
!  Output:Variable,*,Air System Heating Coil Total Heating Energy,Hourly;
!
!  ! SHW
!
!  Output:Variable,*,Water Heater Heating Rate,Hourly;
!
!  ! Fan and Pump
!
!  Output:Variable,*,Fan Electric Power,hourly; !- HVAC Average W
!  Output:Variable,*,Pump Electric Power,hourly; !- HVAC Average W
!  Output:Variable,*,Humidifier Electric Power,hourly; !- HVAC Average W
!
!  ! Utility and Submeter
!
!    Output:Meter,Electricity:Facility,Hourly;
!    Output:Meter,Gas:Facility,Hourly;
!    Output:Meter,InteriorLights:Electricity,Hourly;
!    Output:Meter,ExteriorLights:Electricity,Hourly;
!    Output:Meter,InteriorEquipment:Electricity,Hourly;
!    Output:Meter,ExteriorEquipment:Electricity,Hourly;
!    Output:Meter,Fans:Electricity,Hourly;
!    Output:Meter,Pumps:Electricity,Hourly;
!    Output:Meter,Heating:Electricity,Hourly;
!    Output:Meter,Cooling:Electricity,Hourly;
!    Output:Meter,HeatRejection:Electricity,Hourly;
!    Output:Meter,Humidifier:Electricity,Hourly;
!    Output:Meter,HeatRecovery:Electricity,Hourly;
!    Output:Meter,DHW:Electricity,Hourly;
!    Output:Meter,Cogeneration:Electricity,Hourly;
!    Output:Meter,Refrigeration:Electricity,Hourly;
!    Output:Meter,WaterSystems:Electricity,Hourly;
!
!    Output:Meter,InteriorLights:Gas,Hourly;
!    Output:Meter,ExteriorLights:Gas,Hourly;
!    Output:Meter,InteriorEquipment:Gas,Hourly;
!    Output:Meter,ExteriorEquipment:Gas,Hourly;
!    Output:Meter,Fans:Gas,Hourly;
!    Output:Meter,Pumps:Gas,Hourly;
!    Output:Meter,Heating:Gas,Hourly;
!    Output:Meter,Cooling:Gas,Hourly;
!    Output:Meter,HeatRejection:Gas,Hourly;
!    Output:Meter,Humidifier:Gas,Hourly;
!    Output:Meter,HeatRecovery:Gas,Hourly;
!    Output:Meter,DHW:Gas,Hourly;
!    Output:Meter,Cogeneration:Gas,Hourly;
!    Output:Meter,Refrigeration:Gas,Hourly;
!    Output:Meter,WaterSystems:Gas,Hourly;
Output:Table:SummaryReports,
    EquipmentSummary;        !- Report 3 Name


!-   ===========  ALL OBJECTS IN CLASS: OUTPUT:TABLE:MONTHLY ===========

Output:Table:Monthly,
    NameHolderMonthlySummary TaskPurpose ProgressIndicator,  !- Name
    3,                       !- Digits After Decimal
    Site Outdoor Air Drybulb,!- Variable or Meter 1 Name
    SumOrAverage,            !- Aggregation Type for Variable or Meter 1
    Heating:Gas,             !- Variable or Meter 2 Name
    SumOrAverage;            !- Aggregation Type for Variable or Meter 2

Output:Table:Monthly,
    NameHolderMonthlySummary CodeName ASHRAE901,  !- Name
    3,                       !- Digits After Decimal
    Site Outdoor Air Drybulb,!- Variable or Meter 1 Name
    SumOrAverage,            !- Aggregation Type for Variable or Meter 1
    Heating:Gas,             !- Variable or Meter 2 Name
    SumOrAverage;            !- Aggregation Type for Variable or Meter 2

Output:Table:Monthly,
    NameHolderMonthlySummary CodeYear 2019,  !- Name
    3,                       !- Digits After Decimal
    Site Outdoor Air Drybulb,!- Variable or Meter 1 Name
    SumOrAverage,            !- Aggregation Type for Variable or Meter 1
    Heating:Gas,             !- Variable or Meter 2 Name
    SumOrAverage;            !- Aggregation Type for Variable or Meter 2

Output:Table:Monthly,
    NameHolderMonthlySummary CodeAmendment NoneAmend,  !- Name
    3,                       !- Digits After Decimal
    Site Outdoor Air Drybulb,!- Variable or Meter 1 Name
    SumOrAverage,            !- Aggregation Type for Variable or Meter 1
    Heating:Gas,             !- Variable or Meter 2 Name
    SumOrAverage;            !- Aggregation Type for Variable or Meter 2

Output:Table:Monthly,
    NameHolderMonthlySummary PrototypeName OfficeSmall,  !- Name
    3,                       !- Digits After Decimal
    Site Outdoor Air Drybulb,!- Variable or Meter 1 Name
    SumOrAverage,            !- Aggregation Type for Variable or Meter 1
    Heating:Gas,             !- Variable or Meter 2 Name
    SumOrAverage;            !- Aggregation Type for Variable or Meter 2

Output:Table:Monthly,
    NameHolderMonthlySummary TaskScope National,  !- Name
    3,                       !- Digits After Decimal
    Site Outdoor Air Drybulb,!- Variable or Meter 1 Name
    SumOrAverage,            !- Aggregation Type for Variable or Meter 1
    Heating:Gas,             !- Variable or Meter 2 Name
    SumOrAverage;            !- Aggregation Type for Variable or Meter 2

Output:Table:Monthly,
    NameHolderMonthlySummary State National,  !- Name
    3,                       !- Digits After Decimal
    Site Outdoor Air Drybulb,!- Variable or Meter 1 Name
    SumOrAverage,            !- Aggregation Type for Variable or Meter 1
    Heating:Gas,             !- Variable or Meter 2 Name
    SumOrAverage;            !- Aggregation Type for Variable or Meter 2

Output:Table:Monthly,
    NameHolderMonthlySummary ClimateZone 4A,  !- Name
    3,                       !- Digits After Decimal
    Site Outdoor Air Drybulb,!- Variable or Meter 1 Name
    SumOrAverage,            !- Aggregation Type for Variable or Meter 1
    Heating:Gas,             !- Variable or Meter 2 Name
    SumOrAverage;            !- Aggregation Type for Variable or Meter 2

Output:Table:Monthly,
    NameHolderMonthlySummary RepresentCity USA_NY_NewYork,  !- Name
    3,                       !- Digits After Decimal
    Site Outdoor Air Drybulb,!- Variable or Meter 1 Name
    SumOrAverage,            !- Aggregation Type for Variable or Meter 1
    Heating:Gas,             !- Variable or Meter 2 Name
    SumOrAverage;            !- Aggregation Type for Variable or Meter 2


!-   ===========  ALL OBJECTS IN CLASS: OUTPUTCONTROL:TABLE:STYLE ===========

OutputControl:Table:Style,
    CommaAndHTML;            !- Column Separator


!-   ===========  ALL OBJECTS IN CLASS: OUTPUTCONTROL:REPORTINGTOLERANCES ===========

OutputControl:ReportingTolerances,
    0.556,                   !- Tolerance for Time Heating Setpoint Not Met {deltaC}
    0.556;                   !- Tolerance for Time Cooling Setpoint Not Met {deltaC}


!-   ===========  ALL OBJECTS IN CLASS: OUTPUT:VARIABLE ===========

Output:Variable,
    *,                       !- Key Value
    Air System DX Heating Coil Electric Energy ,  !- Variable Name
    Annual;                  !- Reporting Frequency

Output:Variable,
    *,                       !- Key Value
    Air System DX Cooling Coil Electric Energy ,  !- Variable Name
    Annual;                  !- Reporting Frequency

Output:Variable,
    *,                       !- Key Value
    Air System Fan Electric Energy ,  !- Variable Name
    Annual;                  !- Reporting Frequency

Output:Variable,
    *,                       !- Key Value
    Air System Gas Energy ,  !- Variable Name
    Annual;                  !- Reporting Frequency

Output:Variable,
    *,                       !- Key Value
    Air System Heating Coil Electric Energy ,  !- Variable Name
    Annual;                  !- Reporting Frequency

!-   ===========  ALL OBJECTS IN CLASS: OUTPUT:METER:METERFILEONLY ===========

Output:Meter:MeterFileOnly,
    Electricity:Facility,    !- Key Name
    Hourly;                  !- Reporting Frequency

Output:Meter:MeterFileOnly,
    ElectricityNet:Facility, !- Key Name
    Hourly;                  !- Reporting Frequency

Output:Meter:MeterFileOnly,
    Gas:Facility,            !- Key Name
    Hourly;                  !- Reporting Frequency
    Coil:Heating:Fuel,
    Zone3UnitHeaterHeatingCoil,  !- Name
    Zone3HeatingCoilAvailability,  !- Availability Schedule Name
    NaturalGas,              !- Fuel Type
    0.7925,                  !- Burner Efficiency
    autosize,                !- Nominal Capacity {W}
    Zone3UnitHeaterFanOutletNode,  !- Air Inlet Node Name
    Zone3UnitHeaterAirOutletNode,  !- Air Outlet Node Name
    ,                        !- Temperature Setpoint Node Name
    0.0,                     !- Parasitic Electric Load {W}
    ,                        !- Part Load Fraction Correlation Curve Name
    5000;                    !- Parasitic Fuel Load {W}
    
    Material,
    Bulk Storage Products Material,  !- Name
    Rough,                   !- Roughness
    2.43840494296412,        !- Thickness {m}
    1.44200004455643,        !- Conductivity {W/m-K}
    200.230661511125,        !- Density {kg/m3}
    836.800006332062,        !- Specific Heat {J/kg-K}
    0.9,                     !- Thermal Absorptance
    0.7,                     !- Solar Absorptance
    0.7;                     !- Visible Absorptance
    
    Material,
    Interior Wall Addi Insul,!- Name
    MediumRough,             !- Roughness
    2.54000514892096E-08,    !- Thickness {m}
    4.32600013366928E-02,    !- Conductivity {W/m-K}
    22.425834089246,         !- Density {kg/m3}
    836.800006332062,        !- Specific Heat {J/kg-K}
    0.9,                     !- Thermal Absorptance
    0.7,                     !- Solar Absorptance
    0.7;                     !- Visible Absorptance
    
    Construction,
    Interior Wall,           !- Name
    F07 25mm stucco,         !- Outside Layer
    G01 16mm gypsum board,   !- Layer 2
    Interior Wall Addi Insul,!- Layer 3
    Steel Frame/Cavity,      !- Layer 4
    G01 16mm gypsum board;   !- Layer 5

Construction,
    InsulatedCeiling,        !- Name
    Interior Wall Addi Insul,!- Outside Layer
    G01 16mm gypsum board;   !- Layer 2
    
    Material,
    Steel Frame/Cavity,      !- Name
    MediumRough,             !- Roughness
    8.89001802122336E-02,    !- Thickness {m}
    8.41161885991101E-02,    !- Conductivity {W/m-K}
    641.378854952435,        !- Density {kg/m3}
    502.080003799237,        !- Specific Heat {J/kg-K}
    0.9,                     !- Thermal Absorptance
    0.7,                     !- Solar Absorptance
    0.7;                     !- Visible Absorptance
    
    Schedule:Compact,
    Supply-Temp-Schedule,    !- Name
    Temperature,             !- Schedule Type Limits Name
    Through: 12/31,          !- Field 1
    For: AllDays,            !- Field 2
    Until: 24:00,            !- Field 3
    12.8;                    !- Field 4
    
    
         
       Schedule:Compact,
    OutdoorAirAvailSched,    !- Name
    Fraction,                !- Schedule Type Limits Name
    Through: 3/31,           !- Field 1
    For: AllDays,            !- Field 2
    Until: 24:00,            !- Field 3
    1.0,                     !- Field 4
    Through: 9/30,           !- Field 5
    For: WeekDays,           !- Field 6
    Until: 7:00,             !- Field 7
    0.0,                     !- Field 8
    Until: 17:00,            !- Field 9
    1.0,                     !- Field 10
    Until: 24:00,            !- Field 11
    0.0,                     !- Field 12
    For: SummerDesignDay WinterDesignDay,  !- Field 13
    Until: 24:00,            !- Field 14
    0.0,                     !- Field 15
    For: AllOtherDays,       !- Field 16
    Until: 24:00,            !- Field 17
    0.0,                     !- Field 18
    Through: 12/31,          !- Field 19
    For: AllDays,            !- Field 20
    Until: 24:00,            !- Field 21
    1.0;                     !- Field 22
   
EnergyManagementSystem:InternalVariable,
    Fan1_DesignFlow,         !- Name
    Supply Fan 1,            !- Internal Data Index Key Name
    Fan Maximum Mass Flow Rate;  !- Internal Data Type

EnergyManagementSystem:InternalVariable,
    Fan2_DesignFlow,         !- Name
    Supply Fan 2,            !- Internal Data Index Key Name
    Fan Maximum Mass Flow Rate;  !- Internal Data Type

