Version,9.0;
!-   ===========  ALL OBJECTS IN CLASS: SIMULATIONCONTROL ===========

  SimulationControl,
    Yes,                     !- Do Zone Sizing Calculation
    Yes,                     !- Do System Sizing Calculation
    Yes,                     !- Do Plant Sizing Calculation
    No,         !- Run Simulation for Sizing Periods
    YES;                      !- Run Simulation for Weather File Run Periods

!-   ===========  ALL OBJECTS IN CLASS: BUILDING ===========

  Building,
    OfficeSmall,            !- Name
    0.0000,                  !- North Axis {deg}
    City,                    !- Terrain
    0.0400,                  !- Loads Convergence Tolerance Value
    0.2000,                  !- Temperature Convergence Tolerance Value {deltaC}
    FullInteriorAndExterior, !- Solar Distribution
    25,                      !- Maximum Number of Warmup Days
    6;                       !- Minimum Number of Warmup Days

!-   ===========  ALL OBJECTS IN CLASS: SHADOWCALCULATION ===========

  ShadowCalculation,
    AverageOverDaysInFrequency,  !- Calculation Method
    30,                      !- Calculation Frequency
    15000;                   !- Maximum Figures in Shadow Overlap Calculations

!-   ===========  ALL OBJECTS IN CLASS: SURFACECONVECTIONALGORITHM:INSIDE ===========

  SurfaceConvectionAlgorithm:Inside,TARP;

!-   ===========  ALL OBJECTS IN CLASS: SURFACECONVECTIONALGORITHM:OUTSIDE ===========

  SurfaceConvectionAlgorithm:Outside,TARP;

!-   ===========  ALL OBJECTS IN CLASS: HEATBALANCEALGORITHM ===========

  HeatBalanceAlgorithm,ConductionTransferFunction,200.0000;

!-   ===========  ALL OBJECTS IN CLASS: TIMESTEP ===========

  Timestep,6;

!-   ===========  ALL OBJECTS IN CLASS: CONVERGENCELIMITS ===========

  ConvergenceLimits,
    1,                       !- Minimum System Timestep {minutes}
    20;                      !- Maximum HVAC Iterations

!-   ===========  ALL OBJECTS IN CLASS: RUNPERIOD ===========

  RunPeriod,
    ,                        !- Name
    1,                       !- Begin Month
    1,                       !- Begin Day of Month
    ,                        !- Begin Year
    12,                      !- End Month
    31,                      !- End Day of Month
    ,                        !- End Year
    Sunday,                  !- Day of Week for Start Day
    No,                      !- Use Weather File Holidays and Special Days
    No,                      !- Use Weather File Daylight Saving Period
    No,                     !- Apply Weekend Holiday Rule
    Yes,                     !- Use Weather File Rain Indicators
    Yes;                     !- Use Weather File Snow Indicators

!-   ===========  ALL OBJECTS IN CLASS: RUNPERIODCONTROL:SPECIALDAYS ===========

  RunPeriodControl:SpecialDays,
    New Years Day,           !- Name
    January 1,               !- Start Date
    1,                       !- Duration {days}
    Holiday;                 !- Special Day Type

  RunPeriodControl:SpecialDays,
    Veterans Day,            !- Name
    November 11,             !- Start Date
    1,                       !- Duration {days}
    Holiday;                 !- Special Day Type

  RunPeriodControl:SpecialDays,
    Christmas,               !- Name
    December 25,             !- Start Date
    1,                       !- Duration {days}
    Holiday;                 !- Special Day Type

  RunPeriodControl:SpecialDays,
    Independence Day,        !- Name
    July 4,                  !- Start Date
    1,                       !- Duration {days}
    Holiday;                 !- Special Day Type

  RunPeriodControl:SpecialDays,
    MLK Day,                 !- Name
    3rd Monday in January,   !- Start Date
    1,                       !- Duration {days}
    Holiday;                 !- Special Day Type

  RunPeriodControl:SpecialDays,
    Presidents Day,          !- Name
    3rd Monday in February,  !- Start Date
    1,                       !- Duration {days}
    Holiday;                 !- Special Day Type

  RunPeriodControl:SpecialDays,
    Memorial Day,            !- Name
    Last Monday in May,      !- Start Date
    1,                       !- Duration {days}
    Holiday;                 !- Special Day Type

  RunPeriodControl:SpecialDays,
    Labor Day,               !- Name
    1st Monday in September, !- Start Date
    1,                       !- Duration {days}
    Holiday;                 !- Special Day Type

  RunPeriodControl:SpecialDays,
    Columbus Day,            !- Name
    2nd Monday in October,   !- Start Date
    1,                       !- Duration {days}
    Holiday;                 !- Special Day Type

  RunPeriodControl:SpecialDays,
    Thanksgiving,            !- Name
    4th Thursday in November,!- Start Date
    1,                       !- Duration {days}
    Holiday;                 !- Special Day Type

!-   ===========  ALL OBJECTS IN CLASS: RUNPERIODCONTROL:DAYLIGHTSAVINGTIME ===========

  RunPeriodControl:DaylightSavingTime,
    2nd Sunday in March,     !- Start Date
    1st Sunday in November;  !- End Date

!-   ===========  ALL OBJECTS IN CLASS: LOCATION ===========

{% include "climates" %}

!-   ===========  ALL OBJECTS IN CLASS: MATERIAL:REGULAR-R ===========

  Material:NoMass,
    Opaque Door panel_con,   !- Name
    MediumRough,             !- Roughness
    0.251572327,  !- Thermal Resistance {m2-K/W}
    0.9,                     !- Thermal Absorptance
    0.7,                     !- Solar Absorptance
    0.7;                     !- Visible Absorptance


!-   ===========  ALL OBJECTS IN CLASS: CONSTRUCTION ===========

  Construction,
    Swinging Door_con,       !- Name
    Opaque Door panel_con;   !- Outside Layer

!-   ===========  ALL OBJECTS IN CLASS: SCHEDULETYPELIMITS ===========

  ScheduleTypeLimits,
    Any Number;              !- Name

  ScheduleTypeLimits,
    Fraction,                !- Name
    0.0,                     !- Lower Limit Value
    1.0,                     !- Upper Limit Value
    CONTINUOUS;              !- Numeric Type

  ScheduleTypeLimits,
    Temperature,             !- Name
    -60,                     !- Lower Limit Value
    200,                     !- Upper Limit Value
    CONTINUOUS;              !- Numeric Type

  ScheduleTypeLimits,
    On/Off,                  !- Name
    0,                       !- Lower Limit Value
    1,                       !- Upper Limit Value
    DISCRETE;                !- Numeric Type

  ScheduleTypeLimits,
    Control Type,            !- Name
    0,                       !- Lower Limit Value
    4,                       !- Upper Limit Value
    DISCRETE;                !- Numeric Type

  ScheduleTypeLimits,
    Humidity,                !- Name
    10,                      !- Lower Limit Value
    90,                      !- Upper Limit Value
    CONTINUOUS;              !- Numeric Type

  ScheduleTypeLimits,
    Number;                  !- Name

!-   ===========  ALL OBJECTS IN CLASS: SCHEDULE:COMPACT ===========


  Schedule:Compact,
    OCC_APT_SCH,             !- Name
    Fraction,                !- Schedule Type Limits Name
    Through: 12/31,          !- Field 1
    For: AllDays,            !- Field 2
    Until: 7:00,1.0,         !- Field 3
    Until: 8:00,0.85,        !- Field 5
    Until: 9:00,0.39,        !- Field 7
    Until: 16:00,0.25,       !- Field 9
    Until: 17:00,0.3,        !- Field 11
    Until: 18:00,0.52,       !- Field 13
    Until: 21:00,0.87,       !- Field 15
    Until: 24:00,1.0;        !- Field 17

  Schedule:Compact,
    OCC_OFF_SCH,             !- Name
    Fraction,                !- Schedule Type Limits Name
    Through: 12/31,          !- Field 1
    For: Weekdays,           !- Field 2
    Until: 8:00,0.0,         !- Field 3
    Until: 12:00,1.0,        !- Field 5
    Until: 13:00,0.5,        !- Field 7
    Until: 17:00,1.0,        !- Field 9
    Until: 24:00,0.0,        !- Field 11
    For AllOtherDays,        !- Field 13
    Until: 24:00,0.0;        !- Field 14




  Schedule:Compact,
    LTG_APT_SCH,             !- Name
    Fraction,                !- Schedule Type Limits Name
    Through: 12/31,          !- Field 1
    For: AllDays,            !- Field 2
    Until: 4:00,0.011316031, !- Field 3
    Until: 5:00,0.033948092, !- Field 5
    Until: 6:00,0.0735542,   !- Field 7
    Until: 7:00,0.079212215, !- Field 9
    Until: 8:00,0.0735542,   !- Field 11
    Until: 9:00,0.033948092, !- Field 13
    Until: 15:00,0.022632061,!- Field 15
    Until: 16:00,0.039606108,!- Field 17
    Until: 17:00,0.079212215,!- Field 19
    Until: 18:00,0.113160307,!- Field 21
    Until: 19:00,0.152766415,!- Field 23
    Until: 21:00,0.181056492,!- Field 25
    Until: 22:00,0.124476338,!- Field 27
    Until: 23:00,0.067896184,!- Field 29
    Until: 24:00,0.028290077;!- Field 31

  Schedule:Compact,
    LTG_COR_SCH,             !- Name
    Fraction,                !- Schedule Type Limits Name
    Through: 12/31,          !- Field 1
    For: AllDays,            !- Field 2
    Until: 24:00,1;          !- Field 3

  Schedule:Compact,
    LTG_OFF_SCH,             !- Name
    Fraction,                !- Schedule Type Limits Name
    Through: 12/31,          !- Field 1
    For: SummerDesignDay,    !- Field 2
    Until: 24:00,1,          !- Field 3
    For: WinterDesignDay,    !- Field 5
    Until: 24:00,0,          !- Field 6
    For: Weekdays,           !- Field 8
    Until: 8:00,0.18,        !- Field 9
    Until: 12:00,0.9,        !- Field 11
    Until: 13:00,0.8,        !- Field 13
    Until: 17:00,0.9,        !- Field 15
    Until: 24:00,0.18,       !- Field 17
    For: AllOtherDays,       !- Field 19
    Until: 24:00,0.18;       !- Field 20





















  Schedule:Compact,
    EQP_APT_SCH,             !- Name
    Fraction,                !- Schedule Type Limits Name
    Through: 12/31,          !- Field 1
    For: AllDays,            !- Field 2
    Until: 1:00,0.45,        !- Field 3
    Until: 2:00,0.41,        !- Field 5
    Until: 3:00,0.39,        !- Field 7
    Until: 5:00,0.38,        !- Field 9
    Until: 6:00,0.43,        !- Field 11
    Until: 7:00,0.54,        !- Field 13
    Until: 8:00,0.65,        !- Field 15
    Until: 9:00,0.66,        !- Field 17
    Until: 10:00,0.67,       !- Field 19
    Until: 11:00,0.69,       !- Field 21
    Until: 12:00,0.70,       !- Field 23
    Until: 13:00,0.69,       !- Field 25
    Until: 14:00,0.66,       !- Field 27
    Until: 15:00,0.65,       !- Field 29
    Until: 16:00,0.68,       !- Field 31
    Until: 17:00,0.80,       !- Field 33
    Until: 19:00,1.0,        !- Field 35
    Until: 20:00,0.93,       !- Field 37
    Until: 21:00,0.89,       !- Field 39
    Until: 22:00,0.85,       !- Field 41
    Until: 23:00,0.71,       !- Field 43
    Until: 24:00,0.58;       !- Field 45



  Schedule:Compact,
    EQP_OFF_SCH,             !- Name
    Fraction,                !- Schedule Type Limits Name
    Through: 12/31,          !- Field 1
    For: Weekdays,           !- Field 2
    Until: 7:00,0.33, !- Field 3
    Until: 8:00,0.5, !- Field 5
    Until: 12:00,1, !- Field 7
    Until: 13:00,0.94, !- Field 9
    Until: 17:00,1, !- Field 11
    Until: 18:00,0.5, !- Field 13
    Until: 24:00,0.33, !- Field 15
    For AllOtherDays,        !- Field 17
    Until: 24:00,0.33; !- Field 18

  Schedule:Compact,
    INF_APT_SCH,             !- Name
    Fraction,                !- Schedule Type Limits Name
    Through: 12/31,          !- Field 1
    For: AllDays,            !- Field 2
    Until: 24:00,1.0;        !- Field 3

  Schedule:Compact,
    INF_OFF_SCH,             !- Name
    Fraction,                !- Schedule Type Limits Name
    Through: 12/31,          !- Field 1
    For: AllDays,            !- Field 2
    Until: 24:00,1.0;        !- Field 3

  Schedule:Compact,
    INF_COR_SCH,             !- Name
    Fraction,                !- Schedule Type Limits Name
    Through: 12/31,          !- Field 1
    For: AllDays,            !- Field 2
    Until: 24:00,1.0;        !- Field 3

  Schedule:Compact,
    INFIL_Door_Opening_SCH,  !- Name
    fraction,                !- Schedule Type Limits Name
    Through: 12/31,          !- Field 1
    For: AllDays,            !- Field 2
    Until: 06:00,0.0,        !- Field 3
    Until: 07:00,0.144, !- Field 5
    Until: 08:00,1.0,        !- Field 7
    Until: 17:00,0.144, !- Field 9
    Until: 18:00,1.0,        !- Field 11
    Until: 22:00,0.144, !- Field 13
    Until: 24:00,0.0;        !- Field 15


Schedule:Compact,
    ALWAYS_ON,               !- Name
    Fraction,                !- Schedule Type Limits Name
    Through: 12/31,          !- Field 1
    For: AllDays,            !- Field 2
    Until: 24:00,            !- Field 3
    1.0;                     !- Field 4

Schedule:Compact,
    Exterior_Lgt_ALWAYS_ON,  !- Name
    Fraction,                !- Schedule Type Limits Name
    Through: 12/31,          !- Field 1
    For: AllDays,            !- Field 2
    Until: 24:00,            !- Field 3
    1;                       !- Field 4

Schedule:Compact,
    Exterior_Lgt_189_1,      !- Name
    Fraction,                !- Schedule Type Limits Name
    Through:12/31,           !- Field 1
    For:Weekdays,            !- Field 2
    Until:  9:00,            !- Field 3
    0.5,                     !- Field 4
    Until: 23:00,            !- Field 5
    1.0,                     !- Field 6
    Until: 24:00,            !- Field 7
    0.5,                     !- Field 8
    For:Saturday,            !- Field 9
    Until: 24:00,            !- Field 10
    0.5,                     !- Field 11
    FOR:Sunday Holidays AllOtherDays,  !- Field 12
    Until: 24:00,            !- Field 13
    0.5;                     !- Field 14

Schedule:Compact,
    ALWAYS_OFF,              !- Name
    Fraction,                !- Schedule Type Limits Name
    Through: 12/31,          !- Field 1
    For: AllDays,            !- Field 2
    Until: 24:00,            !- Field 3
    0.0;                     !- Field 4

{% include "HVACOperationSchd" %}

{% include "HTGSETP_SCH_NO_OPTIMUM" %}

{% include "CLGSETP_SCH_NO_OPTIMUM" %}


Schedule:Compact,
    MinOA_MotorizedDamper_Sched,  !- Name
    fraction,                !- Schedule Type Limits Name
    Through: 12/31,          !- Field 1
    For: Weekdays SummerDesignDay,  !- Field 2
    Until: 07:00,            !- Field 3
    0.0,                     !- Field 4
    Until: 19:00,            !- Field 5
    1.0,                     !- Field 6
    Until: 24:00,            !- Field 7
    0.0,                     !- Field 8
    For: Weekends WinterDesignDay,  !- Field 9
    Until: 24:00,            !- Field 10
    0.0,                     !- Field 11
    For: Holidays AllOtherDays,  !- Field 12
    Until: 24:00,            !- Field 13
    0.0;                     !- Field 14

Schedule:Compact,
    MinOA_Sched,             !- Name
    fraction,                !- Schedule Type Limits Name
    Through: 12/31,          !- Field 1
    For: AllDays,            !- Field 2
    Until: 24:00,            !- Field 3
    1.0;                     !- Field 4

Schedule:Compact,
    Dual Zone Control Type Sched,  !- Name
    Control Type,            !- Schedule Type Limits Name
    Through: 12/31,          !- Field 1
    For: SummerDesignDay,    !- Field 5
    Until: 24:00,2,          !- Field 6
    For: WinterDesignDay,    !- Field 8
    Until: 24:00,1,          !- Field 9
    For: Weekdays Weekends Holidays Customday1 Customday2 AllOtherDays, !- Field 2
    Until: 24:00,4;          !- Field 3

Schedule:Compact,
    Seasonal-Reset-Supply-Air-Temp-Sch,  !- Name
    Temperature,             !- Schedule Type Limits Name
    Through: 3/31,           !- Field 1
    For: AllDays,            !- Field 2
    Until: 24:00,            !- Field 3
    13.0,                    !- Field 4
    Through: 9/30,           !- Field 5
    For: AllDays,            !- Field 6
    Until: 24:00,            !- Field 7
    13.0,                    !- Field 8
    Through: 12/31,          !- Field 9
    For: AllDays,            !- Field 10
    Until: 24:00,            !- Field 11
    13.0;                    !- Field 12

Schedule:Compact,
    CW-Loop-Temp-Schedule,   !- Name
    Temperature,             !- Schedule Type Limits Name
    Through: 12/31,          !- Field 1
    For: AllDays,            !- Field 2
    Until: 24:00,            !- Field 3
    6.7;                     !- Field 4

Schedule:Compact,
    HW-Loop-Temp-Schedule,   !- Name
    Temperature,             !- Schedule Type Limits Name
    Through: 12/31,          !- Field 1
    For: AllDays,            !- Field 2
    Until: 24:00,            !- Field 3
    60.;                     !- Field 4

Schedule:Compact,
    Heating-Supply-Air-Temp-Sch,  !- Name
    Temperature,             !- Schedule Type Limits Name
    Through: 12/31,          !- Field 1
    For: AllDays,            !- Field 2
    Until: 24:00,            !- Field 3
    16.0;                    !- Field 4

Schedule:Compact,
    ACTIVITY_SCH,            !- Name
    Any Number,              !- Schedule Type Limits Name
    Through: 12/31,          !- Field 1
    For: AllDays,            !- Field 2
    Until: 24:00,            !- Field 3
    120.;                    !- Field 4

Schedule:Compact,
    WORK_EFF_SCH,            !- Name
    Fraction,                !- Schedule Type Limits Name
    Through: 12/31,          !- Field 1
    For: AllDays,            !- Field 2
    Until: 24:00,            !- Field 3
    0.0;                     !- Field 4

Schedule:Compact,
    AIR_VELO_SCH,            !- Name
    Any Number,              !- Schedule Type Limits Name
    Through: 12/31,          !- Field 1
    For: AllDays,            !- Field 2
    Until: 24:00,            !- Field 3
    0.2;                     !- Field 4

Schedule:Compact,
    CLOTHING_SCH,            !- Name
    Any Number,              !- Schedule Type Limits Name
    Through: 04/30,          !- Field 1
    For: AllDays,            !- Field 2
    Until: 24:00,            !- Field 3
    1.0,                     !- Field 4
    Through: 09/30,          !- Field 5
    For: AllDays,            !- Field 6
    Until: 24:00,            !- Field 7
    0.5,                     !- Field 8
    Through: 12/31,          !- Field 9
    For: AllDays,            !- Field 10
    Until: 24:00,            !- Field 11
    1.0;                     !- Field 12

Schedule:Compact,
    SHADING_SCH,             !- Name
    Any Number,              !- Schedule Type Limits Name
    Through: 12/31,          !- Field 1
    For: AllDays,            !- Field 2
    Until: 24:00,            !- Field 3
    0.0;                     !- Field 4

Schedule:Compact,
    Core_ZN Water Equipment Latent fract sched,  !- Name
    Fraction,                !- Schedule Type Limits Name
    Through: 12/31,          !- Field 1
    For: AllDays,            !- Field 2
    Until: 24:00,            !- Field 3
    0.05;                    !- Field 4

Schedule:Compact,
    Core_ZN Water Equipment Sensible fract sched,  !- Name
    Fraction,                !- Schedule Type Limits Name
    Through: 12/31,          !- Field 1
    For: AllDays,            !- Field 2
    Until: 24:00,            !- Field 3
    0.2;                     !- Field 4

Schedule:Compact,
    Core_ZN Water Equipment Temp Sched,  !- Name
    Temperature,             !- Schedule Type Limits Name
    Through: 12/31,          !- Field 1
    For: AllDays,            !- Field 2
    Until: 24:00,            !- Field 3
    48.8;                    !- Field 4

Schedule:Compact,
    Core_ZN Water Equipment Hot Supply Temp Sched,  !- Name
    Temperature,             !- Schedule Type Limits Name
    Through: 12/31,          !- Field 1
    For: AllDays,            !- Field 2
    Until: 24:00,            !- Field 3
    55;                      !- Field 4

Schedule:Compact,
    SHWSys1-Loop-Temp-Schedule,  !- Name
    Temperature,             !- Schedule Type Limits Name
    Through: 12/31,          !- Field 1
    For: AllDays,            !- Field 2
    Until: 24:00,            !- Field 3
    60;                      !- Field 4

Schedule:Compact,
    Supply-Temp-Schedule,  !- Name
    Temperature,             !- Schedule Type Limits Name
    Through: 12/31,          !- Field 1
    For: AllDays,            !- Field 2
    Until: 24:00,            !- Field 3
    12.8;                      !- Field 4

Schedule:Compact,
    SHWSys1 Water Heater Setpoint Temperature Schedule,  !- Name
    Temperature,             !- Schedule Type Limits Name
    Through: 12/31,          !- Field 1
    For: AllDays,            !- Field 2
    Until: 24:00,            !- Field 3
    60.00;                   !- Field 4

Schedule:Compact,
    SHWSys1 Water Heater Ambient Temperature Schedule,  !- Name
    Temperature,             !- Schedule Type Limits Name
    Through: 12/31,          !- Field 1
    For: AllDays,            !- Field 2
    Until: 24:00,            !- Field 3
    22.0;                    !- Field 4

Schedule:Compact,
    Exterior_lighting_schedule_a,  !- Name
    fraction,                !- Schedule Type Limits Name
    Through:12/31,           !- Field 1
    For:AllDays,             !- Field 2
    Until: 06:00,            !- Field 3
    0,                       !- Field 4
    Until: 24:00,            !- Field 5
    1;                       !- Field 6

Schedule:Compact,
    Exterior_lighting_schedule_b,  !- Name
    fraction,                !- Schedule Type Limits Name
    Through:12/31,           !- Field 1
    For:AllDays,             !- Field 2
    Until: 06:00,            !- Field 3
    0.7,                     !- Field 4
    Until: 24:00,            !- Field 5
    1;                       !- Field 6

Schedule:Compact,
    Exterior_lighting_schedule_a_IECC2015,  !- Name
    fraction,                !- Schedule Type Limits Name
    Through:12/31,           !- Field 1
    For:Weekdays SummerDesignDay,  !- Field 2
    Until: 07:00,            !- Field 3
    0,                       !- Field 4
    Until: 19:00,            !- Field 5
    1,                       !- Field 6
    Until: 24:00,            !- Field 7
    0,                       !- Field 8
    For:Saturdays,           !- Field 9
    Until: 24:00,            !- Field 10
    0,                       !- Field 11
    For:AllOtherDays,        !- Field 12
    Until: 24:00,            !- Field 13
    0;                       !- Field 14

Schedule:Compact,
    Exterior_lighting_schedule_b_2016,  !- Name
    fraction,                !- Schedule Type Limits Name
    Through:12/31,           !- Field 1
    For:AllDays,             !- Field 2
    Until: 06:00,            !- Field 3
    0.5,                     !- Field 4
    Until: 24:00,            !- Field 5
    1;                       !- Field 6

Schedule:Compact,
    Exterior_lighting_schedule_c_2016,  !- Name
    fraction,                !- Schedule Type Limits Name
    Through:12/31,           !- Field 1
    For:AllDays,             !- Field 2
    Until: 06:00,            !- Field 3
    0.5,                     !- Field 4
    Until: 19:00,            !- Field 5
    1,                       !- Field 6
    Until: 24:00,            !- Field 7
    0.5;                     !- Field 8

Schedule:Compact,
    FanAndCoilAvailSched,    !- Name
    Fraction,                !- Schedule Type Limits Name
    Through: 3/31,           !- Field 1
    For: AllDays,            !- Field 2
    Until: 24:00,            !- Field 3
    1.0,                     !- Field 4
    Through: 9/30,           !- Field 5
    For: WeekDays,           !- Field 6
    Until: 7:00,             !- Field 7
    0.0,                     !- Field 8
    Until: 17:00,            !- Field 9
    1.0,                     !- Field 10
    Until: 24:00,            !- Field 11
    0.0,                     !- Field 12
    For: WinterDesignDay,    !- Field 13
    Until: 24:00,            !- Field 14
    1.0,                     !- Field 15
    For: SummerDesignDay,    !- Field 16
    Until: 7:00,             !- Field 17
    0.0,                     !- Field 18
    Until: 17:00,            !- Field 19
    1.0,                     !- Field 20
    Until: 24:00,            !- Field 21
    0.0,                     !- Field 22
    For: AllOtherDays,       !- Field 23
    Until: 24:00,            !- Field 24
    0.0,                     !- Field 25
    Through: 12/31,          !- Field 26
    For: AllDays,            !- Field 27
    Until: 24:00,            !- Field 28
    1.0;                     !- Field 29

Schedule:Compact,
    OutdoorAirAvailSched,    !- Name
    Fraction,                !- Schedule Type Limits Name
    Through: 3/31,           !- Field 1
    For: AllDays,            !- Field 2
    Until: 24:00,            !- Field 3
    1.0,                     !- Field 4
    Through: 9/30,           !- Field 5
    For: WeekDays,           !- Field 6
    Until: 7:00,             !- Field 7
    0.0,                     !- Field 8
    Until: 17:00,            !- Field 9
    1.0,                     !- Field 10
    Until: 24:00,            !- Field 11
    0.0,                     !- Field 12
    For: SummerDesignDay WinterDesignDay,  !- Field 13
    Until: 24:00,            !- Field 14
    0.0,                     !- Field 15
    For: AllOtherDays,       !- Field 16
    Until: 24:00,            !- Field 17
    0.0,                     !- Field 18
    Through: 12/31,          !- Field 19
    For: AllDays,            !- Field 20
    Until: 24:00,            !- Field 21
    1.0;                     !- Field 22

Schedule:Compact,
    OAFractionSched,         !- Name
    Fraction,                !- Schedule Type Limits Name
    Through: 12/31,          !- Field 1
    For: AllDays,            !- Field 2
    Until: 7:00,             !- Field 3
    0.0,                     !- Field 4
    Until: 17:00,            !- Field 5
    1.0,                     !- Field 6
    Until: 24:00,            !- Field 7
    0.0;                     !- Field 8

Schedule:Compact,
    FanModeSchedule,         !- Name
    Fraction,                !- Schedule Type Limits Name
    Through: 12/31,          !- Field 1
    For: AllDays,            !- Field 2
    Until: 7:00,             !- Field 3
    0.0,                     !- Field 4
    Until: 17:00,            !- Field 5
    1.0,                     !- Field 6
    Until: 24:00,            !- Field 7
    0.0;                     !- Field 8

  Schedule:Compact,
    HTGSETP_OFF_SCH_No_Optimum,  !- Name
    Temperature,             !- Schedule Type Limits Name
    THROUGH: 12/31,          !- Field 1
    FOR: WinterDesignDay SummerDesignDay, !- Field 2
    UNTIL: 7:00,15.6,        !- Field 3
    UNTIL: 8:00,18.3,        !- Field 5
    UNTIL:17:00,21.1,        !- Field 7
    UNTIL: 18:00,18.3,       !- Field 9
    UNTIL: 24:00,15.6,       !- Field 11
    FOR:Weekdays,            !- Field 13
    UNTIL: 7:00,15.6,        !- Field 14
    UNTIL: 8:00,21.1,        !- Field 16
    UNTIL:17:00,21.1,        !- Field 18
    UNTIL: 18:00,18.3,       !- Field 20
    UNTIL: 24:00,15.6,       !- Field 22
    FOR: AllOtherDays,       !- Field 24
    UNTIL: 24:00,15.6;       !- Field 25

  Schedule:Compact,
    HTGSETP_OFF_SCH_Yes_Optimum,  !- Name
    Temperature,             !- Schedule Type Limits Name
    THROUGH: 12/31,          !- Field 1
    FOR: WinterDesignDay SummerDesignDay, !- Field 2
    UNTIL: 7:00,15.6,        !- Field 3
    UNTIL: 8:00,18.3,        !- Field 5
    UNTIL: 17:00,21.1,       !- Field 7
    UNTIL: 18:00,18.3,       !- Field 9
    UNTIL: 24:00,15.6,       !- Field 11
    FOR:Weekdays,            !- Field 13
    UNTIL: 7:00,15.6,        !- Field 14
    UNTIL: 8:00,17.8,        !- Field 16
    UNTIL: 9:00,20.0,        !- Field 18
    UNTIL: 17:00,21.1,       !- Field 20
    UNTIL: 18:00,18.3,       !- Field 22
    UNTIL: 24:00,15.6,       !- Field 24
    FOR: AllOtherDays,       !- Field 26
    UNTIL: 24:00,15.6;       !- Field 27

  Schedule:Compact,
    All On,                  !- Name
    Fraction,                !- Schedule Type Limits Name
    Through: 12/31,          !- Field 1
    For: AllDays,            !- Field 2
    Until: 24:00,1;          !- Field 3


  Schedule:Compact,
    AllOn_Except_DD,         !- Name
    Fraction,                !- Schedule Type Limits Name
    Through: 12/31,          !- Field 1
    For: SummerDesignDay,    !- Field 1
    Until: 24:00,0,          !- Field 2
    For: WinterDesignDay,    !- Field 3
    Until: 24:00,0,          !- Field 4
    For: AllOtherDays,       !- Field 5
    Until: 24:00,1;          !- Field 6

{% include "MinOAFraction" %}


!
!-   ===========  ALL OBJECTS IN CLASS: MATERIAL:REGULAR ===========
 
{% include "wall_roof" %} 
 
  Material,
    Std Wood 6inch,          !- Name
    MediumSmooth,            !- Roughness
    0.15,                    !- Thickness {m}
    0.12,                    !- Conductivity {W/m-K}
    540.0000,                !- Density {kg/m3}
    1210,                    !- Specific Heat {J/kg-K}
    0.9000000,               !- Thermal Absorptance
    0.7000000,               !- Solar Absorptance
    0.7000000;               !- Visible Absorptance
 
  Material,
    AC02 Acoustic Ceiling,   !- Name
    MediumSmooth,            !- Roughness
    1.2700000E-02,           !- Thickness {m}
    5.7000000E-02,           !- Conductivity {W/m-K}
    288.0000,                !- Density {kg/m3}
    1339.000,                !- Specific Heat {J/kg-K}
    0.9000000,               !- Thermal Absorptance
    0.7000000,               !- Solar Absorptance
    0.2000000;               !- Visible Absorptance
 
  Material,
    F07 25mm stucco,         !- Name
    Smooth,                  !- Roughness
    0.0254,                  !- Thickness {m}
    0.72,                    !- Conductivity {W/m-K}
    1856,                    !- Density {kg/m3}
    840,                     !- Specific Heat {J/kg-K}
    0.9,                     !- Thermal Absorptance
    0.7,                     !- Solar Absorptance
    0.7;                     !- Visible Absorptance
 
  Material,
    F08 Metal surface,       !- Name
    Smooth,                  !- Roughness
    0.0008,                  !- Thickness {m}
    45.28,                   !- Conductivity {W/m-K}
    7824,                    !- Density {kg/m3}
    500;                     !- Specific Heat {J/kg-K}

  Material,
    F08 Metal roof surface,       !- Name
    Smooth,                  !- Roughness
    0.0008,                  !- Thickness {m}
    45.28,                   !- Conductivity {W/m-K}
    7824,                    !- Density {kg/m3}
    500,                     !- Specific Heat {J/kg-K}
    0.9,                     !- Absorptance:Thermal
    0.7;                     !- Absorptance:Solar
    
  Material,
    F12 Asphalt shingles,    !- Name
    VeryRough,               !- Roughness
    0.0032,                  !- Thickness {m}
    0.04,                    !- Conductivity {W/m-K}
    1120,                    !- Density {kg/m3}
    1260,                    !- Specific Heat {J/kg-K}
    0.9,                     !- Absorptance:Thermal
    0.7;                     !- Absorptance:Solar
 
  Material,
    F13 Built-up roofing,    !- Name
    Rough,                   !- Roughness
    0.0095,                  !- Thickness {m}
    0.16,                    !- Conductivity {W/m-K}
    1120,                    !- Density {kg/m3}
    1460,                    !- Specific Heat {J/kg-K}
    0.9,                     !- Absorptance:Thermal
    0.7;                     !- Absorptance:Solar

  Material,
    G01 13mm gypsum board,   !- Name
    Smooth,                  !- Roughness
    0.0127,                  !- Thickness {m}
    0.1600,                  !- Conductivity {W/m-K}
    800.0000,                !- Density {kg/m3}
    1090.0000,               !- Specific Heat {J/kg-K}
    0.9000,                  !- Absorptance:Thermal
    0.7000,                  !- Absorptance:Solar
    0.5000;                  !- Absorptance:Visible
    
  Material,
    G01 16mm gypsum board,   !- Name
    MediumSmooth,            !- Roughness
    0.0159,                  !- Thickness {m}
    0.16,                    !- Conductivity {W/m-K}
    800,                     !- Density {kg/m3}
    1090;                    !- Specific Heat {J/kg-K}
 
  Material,
    G02 16mm plywood,        !- Name
    Smooth,                  !- Roughness
    0.0159,                  !- Thickness {m}
    0.12,                    !- Conductivity {W/m-K}
    544,                     !- Density {kg/m3}
    1210;                    !- Specific Heat {J/kg-K}
 
  Material,
    M14 150mm heavyweight concrete roof,  !- Name
    MediumRough,             !- Roughness
    0.1524,                  !- Thickness {m}
    2.31,                    !- Conductivity {W/m-K}
    2322,       !- Density {kg/m3}
    832;           !- Specific Heat {J/kg-K}


  Material,
    100mm Normalweight concrete wall,  !- Name  - based on 90.1-2004 Appendix-Table A3-1B
    MediumRough,             !- Roughness
    0.1016,                  !- Thickness {m}
    2.31,                    !- Conductivity {W/m-K}
    2322,       !- Density {kg/m3}
    832;           !- Specific Heat {J/kg-K}


  Material,
    200mm Normalweight concrete wall,  !- Name  - based on 90.1-2004 Appendix-Table A3-1B
    MediumRough,             !- Roughness
    0.2032,                  !- Thickness {m}
    2.31,                    !- Conductivity {W/m-K}
    2322,       !- Density {kg/m3}
    832;           !- Specific Heat {J/kg-K}

  Material,
    100mm Normalweight concrete floor,  !- Name  - based on 90.1-2004 Appendix-Table A3-1B
    MediumRough,             !- Roughness
    0.1016,                  !- Thickness {m}
    2.31,                    !- Conductivity {W/m-K}
    2322,       !- Density {kg/m3}
    832;           !- Specific Heat {J/kg-K}

  Material,
    150mm Normalweight concrete floor,  !- Name  - based on 90.1-2004 Appendix-Table A3-1B
    MediumRough,             !- Roughness
    0.1524,                  !- Thickness {m}
    2.31,                    !- Conductivity {W/m-K}
    2322,       !- Density {kg/m3}
    832;           !- Specific Heat {J/kg-K}

  Material,
    200mm Normalweight concrete floor,  !- Name  - based on 90.1-2004 Appendix-Table A3-1B
    MediumRough,             !- Roughness
    0.2032,                  !- Thickness {m}
    2.31,                    !- Conductivity {W/m-K}
    2322,       !- Density {kg/m3}
    832;           !- Specific Heat {J/kg-K}

  Material,
    M10 200mm concrete block wall,  !- Name
    MediumRough,             !- Roughness
    0.2032,                  !- Thickness {m}
    0.72,                    !- Conductivity {W/m-K}
    800,       !- Density {kg/m3}
    832;           !- Specific Heat {J/kg-K}

  Material,
    M10 200mm concrete block basement wall,  !- Name
    MediumRough,             !- Roughness
    0.2032,                  !- Thickness {m}
    1.326,                    !- Conductivity {W/m-K}
    1842,       !- Density {kg/m3}
    912;           !- Specific Heat {J/kg-K}


  Material:NoMass,
    CP02 CARPET PAD,         !- Name
    VeryRough,               !- Roughness
    0.21648,                 !- Thermal Resistance {m2-K/W}
    0.9,                     !- Thermal Absorptance
    0.7,                     !- Solar Absorptance
    0.8;                     !- Visible Absorptance

 
  Material:NoMass,
    Air_Wall_Material,       !- Name
    Rough,                   !- Roughness
    0.2079491,               !- Thermal Resistance {m2-K/W}
    0.9,                     !- Thermal Absorptance
    0.7;                     !- Solar Absorptance


  Material:NoMass,
    Res_Roof_Insulation,  !- Name
    MediumSmooth,            !- Roughness
    0.0299387330245182,
            !- Thermal Resistance {m2-K/W}
    0.9,                     !- Thermal Absorptance
    0.7,                     !- Solar Absorptance
    0.7;                     !- Visible Absorptance

  Material:NoMass,
    Semiheated_Roof_Insulation,  !- Name
    MediumSmooth,            !- Roughness
    0.0299387330245182,
            !- Thermal Resistance {m2-K/W}
    0.9,                     !- Thermal Absorptance
    0.7,                     !- Solar Absorptance
    0.7;                     !- Visible Absorptance


  Material:NoMass,
    Res_Exterior_Wall_Insulation,  !- Name
    MediumSmooth,            !- Roughness
    0.0299387330245182,
            !- Thermal Resistance {m2-K/W}
    0.9,                     !- Thermal Absorptance
    0.7,                     !- Solar Absorptance
    0.7;                     !- Visible Absorptance

  Material:NoMass,
    Semiheated_Exterior_Wall_Insulation,  !- Name
    MediumSmooth,            !- Roughness
    0.0299387330245182,
            !- Thermal Resistance {m2-K/W}
    0.9,                     !- Thermal Absorptance
    0.7,                     !- Solar Absorptance
    0.7;                     !- Visible Absorptance



  Material:NoMass,
    Nonres_Floor_Insulation,  !- Name
    MediumSmooth,            !- Roughness

    0.0299387330245182,
            !- Thermal Resistance {m2-K/W}
    0.9,                     !- Thermal Absorptance
    0.7,                     !- Solar Absorptance
    0.7;                     !- Visible Absorptance

  Material:NoMass,
    Res_Floor_Insulation,  !- Name
    MediumSmooth,            !- Roughness

    0.0299387330245182,
            !- Thermal Resistance {m2-K/W}
    0.9,                     !- Thermal Absorptance
    0.7,                     !- Solar Absorptance
    0.7;                     !- Visible Absorptance

  Material:NoMass,
    Semiheated_Floor_Insulation,  !- Name
    MediumSmooth,            !- Roughness

    0.0299387330245182,
            !- Thermal Resistance {m2-K/W}
    0.9,                     !- Thermal Absorptance
    0.7,                     !- Solar Absorptance
    0.7;                     !- Visible Absorptance

  Material:NoMass,
    Std Opaque Door Panel,  !- Name
    MediumRough,             !- Roughness
    0.123456790123457,  !- (corresponds to default RSI-0.12327 or R-0.7) Thermal Resistance {m2-K/W}
    0.9,                     !- Thermal Absorptance
    0.7,                     !- Solar Absorptance
    0.7;                     !- Visible Absorptance

{% include "window" %} 

!-   ===========  ALL OBJECTS IN CLASS: CONSTRUCTION ===========

  Construction,
    InteriorFurnishings,     !- Name
    Std Wood 6inch;          !- Outside Layer
 
  Construction,
    Air_Wall,                !- Name
    Air_Wall_Material;       !- Outside Layer

  Construction,
    DropCeiling,             !- Name
    AC02 Acoustic Ceiling;   !- Outside Layer
   
  Construction,
    OpaqueDoor,   !- Name
    Std Opaque Door Panel;  !- Outside Layer

  Construction,
    AtticRoofDeck,           !- Name
    F12 Asphalt shingles,    !- Outside Layer
    G02 16mm plywood;        !- Layer 2
 
  Construction,
    int_wall,                !- Name
    G01 13mm gypsum board,   !- Outside Layer
    G01 13mm gypsum board;   !- Layer 2
 
  Construction,
    ext_slab_8in_with_carpet,!- Name
    200mm Normalweight concrete floor,  !- Outside Layer
    CP02 CARPET PAD;         !- Layer 2
 
  Construction,
    ext_slab_8in,            !- Name
    200mm Normalweight concrete floor;  !- Outside Layer
 
  Construction,
    ext_slab_6in_with_carpet,!- Name
    150mm Normalweight concrete floor,  !- Outside Layer
    CP02 CARPET PAD;         !- Layer 2
 
  Construction,
    ext_slab_6in,            !- Name
    150mm Normalweight concrete floor;  !- Outside Layer
 
  Construction,
    int_slab_floor,          !- Name
    100mm Normalweight concrete floor,  !- Outside Layer
    CP02 CARPET PAD;         !- Layer 2
 
  Construction,
    int_slab_ceiling,        !- Name
    CP02 CARPET PAD,         !- Outside Layer
    100mm Normalweight concrete floor;  !- Layer 2
 
  Construction,
    basement_wall,           !- Name
    M10 200mm concrete block basement wall;  !- Outside Layer
 
  Construction,
    int_wood_floor,          !- Name
    AC02 Acoustic Ceiling,   !- Outside Layer
    G02 16mm plywood,        !- Layer 2
    CP02 CARPET PAD;         !- Layer 3
 
  Construction,
    ext_soffit_floor,          !- Name
    G02 16mm plywood;   !- Outside Layer
 
  Construction,
    nonres_roof,                   !- Name
        Nonres_Roof_Insulation,   !- Outside Layer
        G01 16mm gypsum board;  !- Layer #2


  Construction,
    res_roof,                   !- Name
        Res_Roof_Insulation,   !- Outside Layer
        G01 16mm gypsum board;  !- Layer #2


  Construction,
    semiheated_roof,                   !- Name
        Semiheated_Roof_Insulation,   !- Outside Layer
        G01 16mm gypsum board;  !- Layer #2


  Construction,
    nonres_roof_floor,               !- Name - Other side zone surface definition for nonres_roof
        G01 16mm gypsum board,  !- Outside Layer
        Nonres_Roof_Insulation;   !- Layer #2

  Construction,
    res_roof_floor,               !- Name - Other side zone surface definition for res_roof
        G01 16mm gypsum board,  !- Outside Layer
        Res_Roof_Insulation;   !- Layer #2

  Construction,
    semiheated_roof_floor,               !- Name - Other side zone surface definition for semiheated_roof
        G01 16mm gypsum board,  !- Outside Layer
        Semiheated_Roof_Insulation;   !- Layer #2



  Construction,
    nonres_ext_wall,               !- Name
    F07 25mm stucco,               !- Outside Layer
    G01 16mm gypsum board,         !- Layer #2
    Nonres_Exterior_Wall_Insulation,      !- Layer #3
    G01 16mm gypsum board;         !- Layer #4


  Construction,
    res_ext_wall,               !- Name
    F07 25mm stucco,               !- Outside Layer
    G01 16mm gypsum board,         !- Layer #1
    Nonres_Exterior_Wall_Insulation,      !- Layer #2
    G01 16mm gypsum board;         !- Layer #3


  Construction,
    semiheated_ext_wall,               !- Name
    F07 25mm stucco,               !- Outside Layer
    G01 16mm gypsum board,         !- Layer #1
    Semiheated_Exterior_Wall_Insulation,      !- Layer #2
    G01 16mm gypsum board;         !- Layer #3


  Construction,
    nonres_floor,                !- Name
    Nonres_Floor_Insulation,               !- Outside Layer
    100mm Normalweight concrete floor,         !- Layer #1
    CP02 CARPET PAD;         !- Layer #2


  Construction,
    res_floor,                !- Name
    Res_Floor_Insulation,               !- Outside Layer
    100mm Normalweight concrete floor,         !- Layer #1
    CP02 CARPET PAD;         !- Layer #2


  Construction,
    semiheated_floor,                !- Name
    Semiheated_Floor_Insulation,               !- Outside Layer
    100mm Normalweight concrete floor,         !- Layer #1
    CP02 CARPET PAD;         !- Layer #2


  Construction,
    nonres_floor_ceiling,                !- Name - reverse ordered layers for nonres_floor
    CP02 CARPET PAD,               !- Outside Layer
    100mm Normalweight concrete floor,         !- Layer #1
    Nonres_Floor_Insulation;         !- Layer #2
       
  Construction,
    res_floor_ceiling,                !- Name - reverse ordered layers for res_floor
    CP02 CARPET PAD,               !- Outside Layer
    100mm Normalweight concrete floor,         !- Layer #1
    Res_Floor_Insulation;         !- Layer #2
       
  Construction,
    semiheated_floor_ceiling,                !- Name - reverse ordered layers for semiheated_floor
    CP02 CARPET PAD,               !- Outside Layer
    100mm Normalweight concrete floor,         !- Layer #1
    Semiheated_Floor_Insulation;         !- Layer #2
       
Construction,
    Window_U_0.36_SHGC_0.36, !- Name
    Glazing Layer;           !- Outside Layer





!-   ===========  ALL OBJECTS IN CLASS: GLOBALGEOMETRYRULES ===========

  GlobalGeometryRules,
    UpperLeftCorner,         !- Starting Vertex Position
    Counterclockwise,        !- Vertex Entry Direction
    Relative,                !- Coordinate System
    Relative;                !- Daylighting Reference Point Coordinate System

    

  Construction:FfactorGroundFloor,
    Core_ZN_floor_Ffactor,  !- Name
    1.26363,   !- F-Factor
    149.65740000000005,   !- Area
    0;   !- PerimeterExposed

  Construction:FfactorGroundFloor,
    Perimeter_ZN_1_floor_Ffactor,  !- Name
    1.26363,   !- F-Factor
    113.45000000000002,   !- Area
    27.69;   !- PerimeterExposed

  Construction:FfactorGroundFloor,
    Perimeter_ZN_2_floor_Ffactor,  !- Name
    1.26363,   !- F-Factor
    67.29999999999995,   !- Area
    18.46;   !- PerimeterExposed

  Construction:FfactorGroundFloor,
    Perimeter_ZN_3_floor_Ffactor,  !- Name
    1.26363,   !- F-Factor
    113.44999999999999,   !- Area
    27.69;   !- PerimeterExposed

  Construction:FfactorGroundFloor,
    Perimeter_ZN_4_floor_Ffactor,  !- Name
    1.26363,   !- F-Factor
    67.30000000000001,   !- Area
    18.46;   !- PerimeterExposed



  
!-   ===========  ALL OBJECTS IN CLASS: ZONE ===========
  Zone,
    M SW Apartment,          !- Name
    0.0000,                  !- Direction of Relative North {deg}
    0.0000,                  !- X Origin {m}
    0.0000,                  !- Y Origin {m}
    12.1914,                 !- Z Origin {m}
    1,                       !- Type
    1,                       !- Multiplier
    -9999.0000,              !- Ceiling Height {m}
    autocalculate,           !- Volume {m3}
    autocalculate,           !- Floor Area {m2}
    ,                        !- Zone Inside Convection Algorithm
    ,                        !- Zone Outside Convection Algorithm
    Yes;                     !- Part of Total Floor Area

  Zone,
    M NW Apartment,          !- Name
    0.0000,                  !- Direction of Relative North {deg}
    0.0000,                  !- X Origin {m}
    9.2959,                  !- Y Origin {m}
    12.1914,                 !- Z Origin {m}
    1,                       !- Type
    1,                       !- Multiplier
    -9999.0000,              !- Ceiling Height {m}
    autocalculate,           !- Volume {m3}
    autocalculate,           !- Floor Area {m2}
    ,                        !- Zone Inside Convection Algorithm
    ,                        !- Zone Outside Convection Algorithm
    Yes;                     !- Part of Total Floor Area

  Zone,
    M SE Apartment,          !- Name
    0.0000,                  !- Direction of Relative North {deg}
    34.7455,                 !- X Origin {m}
    0.0000,                  !- Y Origin {m}
    12.1914,                 !- Z Origin {m}
    1,                       !- Type
    1,                       !- Multiplier
    -9999.0000,              !- Ceiling Height {m}
    autocalculate,           !- Volume {m3}
    autocalculate,           !- Floor Area {m2}
    ,                        !- Zone Inside Convection Algorithm
    ,                        !- Zone Outside Convection Algorithm
    Yes;                     !- Part of Total Floor Area

  Zone,
    M NE Apartment,          !- Name
    0.0000,                  !- Direction of Relative North {deg}
    34.7455,                 !- X Origin {m}
    9.2959,                  !- Y Origin {m}
    12.1914,                 !- Z Origin {m}
    1,                       !- Type
    1,                       !- Multiplier
    -9999.0000,              !- Ceiling Height {m}
    autocalculate,           !- Volume {m3}
    autocalculate,           !- Floor Area {m2}
    ,                        !- Zone Inside Convection Algorithm
    ,                        !- Zone Outside Convection Algorithm
    Yes;                     !- Part of Total Floor Area

  Zone,
    M N1 Apartment,          !- Name
    0.0000,                  !- Direction of Relative North {deg}
    11.5818,                 !- X Origin {m}
    9.2959,                  !- Y Origin {m}
    12.1914,                 !- Z Origin {m}
    1,                       !- Type
    1,                       !- Multiplier
    -9999.0000,              !- Ceiling Height {m}
    autocalculate,           !- Volume {m3}
    autocalculate,           !- Floor Area {m2}
    ,                        !- Zone Inside Convection Algorithm
    ,                        !- Zone Outside Convection Algorithm
    Yes;                     !- Part of Total Floor Area

  Zone,
    M N2 Apartment,          !- Name
    0.0000,                  !- Direction of Relative North {deg}
    23.1637,                 !- X Origin {m}
    9.2959,                  !- Y Origin {m}
    12.1914,                 !- Z Origin {m}
    1,                       !- Type
    1,                       !- Multiplier
    -9999.0000,              !- Ceiling Height {m}
    autocalculate,           !- Volume {m3}
    autocalculate,           !- Floor Area {m2}
    ,                        !- Zone Inside Convection Algorithm
    ,                        !- Zone Outside Convection Algorithm
    Yes;                     !- Part of Total Floor Area

  Zone,
    M S1 Apartment,          !- Name
    0.0000,                  !- Direction of Relative North {deg}
    11.5818,                 !- X Origin {m}
    0.0000,                  !- Y Origin {m}
    12.1914,                 !- Z Origin {m}
    1,                       !- Type
    1,                       !- Multiplier
    -9999.0000,              !- Ceiling Height {m}
    autocalculate,           !- Volume {m3}
    autocalculate,           !- Floor Area {m2}
    ,                        !- Zone Inside Convection Algorithm
    ,                        !- Zone Outside Convection Algorithm
    Yes;                     !- Part of Total Floor Area

  Zone,
    M S2 Apartment,          !- Name
    0.0000,                  !- Direction of Relative North {deg}
    23.1637,                 !- X Origin {m}
    0.0000,                  !- Y Origin {m}
    12.1914,                 !- Z Origin {m}
    1,                       !- Type
    1,                       !- Multiplier
    -9999.0000,              !- Ceiling Height {m}
    autocalculate,           !- Volume {m3}
    autocalculate,           !- Floor Area {m2}
    ,                        !- Zone Inside Convection Algorithm
    ,                        !- Zone Outside Convection Algorithm
    Yes;                     !- Part of Total Floor Area

  Zone,
    M Corridor,              !- Name
    0.0000,                  !- Direction of Relative North {deg}
    0.0000,                  !- X Origin {m}
    7.6196,                  !- Y Origin {m}
    12.1914,                 !- Z Origin {m}
    1,                       !- Type
    1,                       !- Multiplier
    -9999.0000,              !- Ceiling Height {m}
    autocalculate,           !- Volume {m3}
    autocalculate,           !- Floor Area {m2}
    ,                        !- Zone Inside Convection Algorithm
    ,                        !- Zone Outside Convection Algorithm
    Yes;                     !- Part of Total Floor Area
!-   ===========  ALL OBJECTS IN CLASS: BUILDINGSURFACE:DETAILED ===========

  BuildingSurface:Detailed,
    m WWall SWA,             !- Name
    Wall,                    !- Surface Type
    res_ext_wall,            !- Construction Name
    M SW Apartment,          !- Zone Name
    Outdoors,                !- Outside Boundary Condition
    ,                        !- Outside Boundary Condition Object
    SunExposed,              !- Sun Exposure
    WindExposed,             !- Wind Exposure
    AutoCalculate,           !- View Factor to Ground
    4,                       !- Number of Vertices
    0.000000,7.619600,3.047800,  !- X,Y,Z ==> Vertex 1 {m}
    0.000000,7.619600,0.000000,  !- X,Y,Z ==> Vertex 2 {m}
    0.000000,0.000000,0.000000,  !- X,Y,Z ==> Vertex 3 {m}
    0.000000,0.000000,3.047800;  !- X,Y,Z ==> Vertex 4 {m}

  BuildingSurface:Detailed,
    m GFloor SWA,            !- Name
    Floor,                   !- Surface Type
    int_slab_floor,          !- Construction Name
    M SW Apartment,          !- Zone Name
    adiabatic,                 !- Outside Boundary Condition
    ,           !- Outside Boundary Condition Object
    NoSun,                   !- Sun Exposure
    NoWind,                  !- Wind Exposure
    0.0,                     !- View Factor to Ground
    4,                       !- Number of Vertices
    0.000000,7.619600,0.000000,  !- X,Y,Z ==> Vertex 1 {m}
    11.581800,7.619600,0.000000,  !- X,Y,Z ==> Vertex 2 {m}
    11.581800,0.000000,0.000000,  !- X,Y,Z ==> Vertex 3 {m}
    0.000000,0.000000,0.000000;  !- X,Y,Z ==> Vertex 4 {m}

  BuildingSurface:Detailed,
    m Ceilin SWA,            !- Name
    Ceiling,                 !- Surface Type
    int_slab_ceiling,        !- Construction Name
    M SW Apartment,          !- Zone Name
    adiabatic,                 !- Outside Boundary Condition
    ,           !- Outside Boundary Condition Object
    NoSun,                   !- Sun Exposure
    NoWind,                  !- Wind Exposure
    AutoCalculate,           !- View Factor to Ground
    4,                       !- Number of Vertices
    11.581800,0.000000,3.047800,  !- X,Y,Z ==> Vertex 1 {m}
    11.581800,7.619600,3.047800,  !- X,Y,Z ==> Vertex 2 {m}
    0.000000,7.619600,3.047800,  !- X,Y,Z ==> Vertex 3 {m}
    0.000000,0.000000,3.047800;  !- X,Y,Z ==> Vertex 4 {m}

  BuildingSurface:Detailed,
    m SWall SWA,             !- Name
    Wall,                    !- Surface Type
    res_ext_wall,            !- Construction Name
    M SW Apartment,          !- Zone Name
    Outdoors,                !- Outside Boundary Condition
    ,                        !- Outside Boundary Condition Object
    SunExposed,              !- Sun Exposure
    WindExposed,             !- Wind Exposure
    AutoCalculate,           !- View Factor to Ground
    4,                       !- Number of Vertices
    0.000000,0.000000,3.047800,  !- X,Y,Z ==> Vertex 1 {m}
    0.000000,0.000000,0.000000,  !- X,Y,Z ==> Vertex 2 {m}
    11.581800,0.000000,0.000000,  !- X,Y,Z ==> Vertex 3 {m}
    11.581800,0.000000,3.047800;  !- X,Y,Z ==> Vertex 4 {m}

  BuildingSurface:Detailed,
    m NIWall SWA,            !- Name
    Wall,                    !- Surface Type
    int_wall,                !- Construction Name
    M SW Apartment,          !- Zone Name
    Zone,                    !- Outside Boundary Condition
    M Corridor,              !- Outside Boundary Condition Object
    NoSun,                   !- Sun Exposure
    NoWind,                  !- Wind Exposure
    0.0,                     !- View Factor to Ground
    4,                       !- Number of Vertices
    11.581800,7.619600,3.047800,  !- X,Y,Z ==> Vertex 1 {m}
    11.581800,7.619600,0.000000,  !- X,Y,Z ==> Vertex 2 {m}
    0.000000,7.619600,0.000000,  !- X,Y,Z ==> Vertex 3 {m}
    0.000000,7.619600,3.047800;  !- X,Y,Z ==> Vertex 4 {m}

  BuildingSurface:Detailed,
    m EIWALL SWA,            !- Name
    Wall,                    !- Surface Type
    int_wall,                !- Construction Name
    M SW Apartment,          !- Zone Name
    Zone,                    !- Outside Boundary Condition
    M S1 Apartment,          !- Outside Boundary Condition Object
    NoSun,                   !- Sun Exposure
    NoWind,                  !- Wind Exposure
    AutoCalculate,           !- View Factor to Ground
    4,                       !- Number of Vertices
    11.581800,0.000000,3.047800,  !- X,Y,Z ==> Vertex 1 {m}
    11.581800,0.000000,0.000000,  !- X,Y,Z ==> Vertex 2 {m}
    11.581800,7.619600,0.000000,  !- X,Y,Z ==> Vertex 3 {m}
    11.581800,7.619600,3.047800;  !- X,Y,Z ==> Vertex 4 {m}

  BuildingSurface:Detailed,
    m NWall NWA,             !- Name
    Wall,                    !- Surface Type
    res_ext_wall,            !- Construction Name
    M NW Apartment,          !- Zone Name
    Outdoors,                !- Outside Boundary Condition
    ,                        !- Outside Boundary Condition Object
    SunExposed,              !- Sun Exposure
    WindExposed,             !- Wind Exposure
    AutoCalculate,           !- View Factor to Ground
    4,                       !- Number of Vertices
    11.581800,7.619600,3.047800,  !- X,Y,Z ==> Vertex 1 {m}
    11.581800,7.619600,0.000000,  !- X,Y,Z ==> Vertex 2 {m}
    0.000000,7.619600,0.000000,  !- X,Y,Z ==> Vertex 3 {m}
    0.000000,7.619600,3.047800;  !- X,Y,Z ==> Vertex 4 {m}

  BuildingSurface:Detailed,
    m WWall NWA,             !- Name
    Wall,                    !- Surface Type
    res_ext_wall,            !- Construction Name
    M NW Apartment,          !- Zone Name
    Outdoors,                !- Outside Boundary Condition
    ,                        !- Outside Boundary Condition Object
    SunExposed,              !- Sun Exposure
    WindExposed,             !- Wind Exposure
    AutoCalculate,           !- View Factor to Ground
    4,                       !- Number of Vertices
    0.000000,7.619600,3.047800,  !- X,Y,Z ==> Vertex 1 {m}
    0.000000,7.619600,0.000000,  !- X,Y,Z ==> Vertex 2 {m}
    0.000000,0.000000,0.000000,  !- X,Y,Z ==> Vertex 3 {m}
    0.000000,0.000000,3.047800;  !- X,Y,Z ==> Vertex 4 {m}

  BuildingSurface:Detailed,
    m GFloor NWA,            !- Name
    Floor,                   !- Surface Type
    int_slab_floor,          !- Construction Name
    M NW Apartment,          !- Zone Name
    adiabatic,                 !- Outside Boundary Condition
    ,           !- Outside Boundary Condition Object
    NoSun,                   !- Sun Exposure
    NoWind,                  !- Wind Exposure
    0.0,                     !- View Factor to Ground
    4,                       !- Number of Vertices
    0.000000,7.619600,0.000000,  !- X,Y,Z ==> Vertex 1 {m}
    11.581800,7.619600,0.000000,  !- X,Y,Z ==> Vertex 2 {m}
    11.581800,0.000000,0.000000,  !- X,Y,Z ==> Vertex 3 {m}
    0.000000,0.000000,0.000000;  !- X,Y,Z ==> Vertex 4 {m}

  BuildingSurface:Detailed,
    m Ceilin NWA,            !- Name
    Ceiling,                 !- Surface Type
    int_slab_ceiling,        !- Construction Name
    M NW Apartment,          !- Zone Name
     adiabatic,                 !- Outside Boundary Condition
    ,           !- Outside Boundary Condition Object
    NoSun,                   !- Sun Exposure
    NoWind,                  !- Wind Exposure
    0.0,                     !- View Factor to Ground
    4,                       !- Number of Vertices
    11.581800,0.000000,3.047800,  !- X,Y,Z ==> Vertex 1 {m}
    11.581800,7.619600,3.047800,  !- X,Y,Z ==> Vertex 2 {m}
    0.000000,7.619600,3.047800,  !- X,Y,Z ==> Vertex 3 {m}
    0.000000,0.000000,3.047800;  !- X,Y,Z ==> Vertex 4 {m}

  BuildingSurface:Detailed,
    m SIWall NWA,            !- Name
    Wall,                    !- Surface Type
    int_wall,                !- Construction Name
    M NW Apartment,          !- Zone Name
    Zone,                    !- Outside Boundary Condition
    M Corridor,              !- Outside Boundary Condition Object
    NoSun,                   !- Sun Exposure
    NoWind,                  !- Wind Exposure
    0.0,                     !- View Factor to Ground
    4,                       !- Number of Vertices
    0.000000,0.000000,3.047800,  !- X,Y,Z ==> Vertex 1 {m}
    0.000000,0.000000,0.000000,  !- X,Y,Z ==> Vertex 2 {m}
    11.581800,0.000000,0.000000,  !- X,Y,Z ==> Vertex 3 {m}
    11.581800,0.000000,3.047800;  !- X,Y,Z ==> Vertex 4 {m}

  BuildingSurface:Detailed,
    m EIWALL NWA,            !- Name
    Wall,                    !- Surface Type
    int_wall,                !- Construction Name
    M NW Apartment,          !- Zone Name
    Zone,                    !- Outside Boundary Condition
    M N1 Apartment,          !- Outside Boundary Condition Object
    NoSun,                   !- Sun Exposure
    NoWind,                  !- Wind Exposure
    AutoCalculate,           !- View Factor to Ground
    4,                       !- Number of Vertices
    11.581800,0.000000,3.047800,  !- X,Y,Z ==> Vertex 1 {m}
    11.581800,0.000000,0.000000,  !- X,Y,Z ==> Vertex 2 {m}
    11.581800,7.619600,0.000000,  !- X,Y,Z ==> Vertex 3 {m}
    11.581800,7.619600,3.047800;  !- X,Y,Z ==> Vertex 4 {m}

  BuildingSurface:Detailed,
    m EWall SEA,             !- Name
    Wall,                    !- Surface Type
    res_ext_wall,            !- Construction Name
    M SE Apartment,          !- Zone Name
    Outdoors,                !- Outside Boundary Condition
    ,                        !- Outside Boundary Condition Object
    SunExposed,              !- Sun Exposure
    WindExposed,             !- Wind Exposure
    AutoCalculate,           !- View Factor to Ground
    4,                       !- Number of Vertices
    11.581800,0.000000,3.047800,  !- X,Y,Z ==> Vertex 1 {m}
    11.581800,0.000000,0.000000,  !- X,Y,Z ==> Vertex 2 {m}
    11.581800,7.619600,0.000000,  !- X,Y,Z ==> Vertex 3 {m}
    11.581800,7.619600,3.047800;  !- X,Y,Z ==> Vertex 4 {m}

  BuildingSurface:Detailed,
    m GFloor SEA,            !- Name
    Floor,                   !- Surface Type
    int_slab_floor,          !- Construction Name
    M SE Apartment,          !- Zone Name
    adiabatic,                 !- Outside Boundary Condition
    ,           !- Outside Boundary Condition Object
    NoSun,                   !- Sun Exposure
    NoWind,                  !- Wind Exposure
    AutoCalculate,           !- View Factor to Ground
    4,                       !- Number of Vertices
    0.000000,7.619600,0.000000,  !- X,Y,Z ==> Vertex 1 {m}
    11.581800,7.619600,0.000000,  !- X,Y,Z ==> Vertex 2 {m}
    11.581800,0.000000,0.000000,  !- X,Y,Z ==> Vertex 3 {m}
    0.000000,0.000000,0.000000;  !- X,Y,Z ==> Vertex 4 {m}

  BuildingSurface:Detailed,
    m Ceilin SEA,            !- Name
    Ceiling,                 !- Surface Type
    int_slab_ceiling,        !- Construction Name
    M SE Apartment,          !- Zone Name
    adiabatic,                 !- Outside Boundary Condition
    ,           !- Outside Boundary Condition Object
    NoSun,                   !- Sun Exposure
    NoWind,                  !- Wind Exposure
    AutoCalculate,           !- View Factor to Ground
    4,                       !- Number of Vertices
    11.581800,0.000000,3.047800,  !- X,Y,Z ==> Vertex 1 {m}
    11.581800,7.619600,3.047800,  !- X,Y,Z ==> Vertex 2 {m}
    0.000000,7.619600,3.047800,  !- X,Y,Z ==> Vertex 3 {m}
    0.000000,0.000000,3.047800;  !- X,Y,Z ==> Vertex 4 {m}

  BuildingSurface:Detailed,
    m SWall SEA,             !- Name
    Wall,                    !- Surface Type
    res_ext_wall,            !- Construction Name
    M SE Apartment,          !- Zone Name
    Outdoors,                !- Outside Boundary Condition
    ,                        !- Outside Boundary Condition Object
    SunExposed,              !- Sun Exposure
    WindExposed,             !- Wind Exposure
    AutoCalculate,           !- View Factor to Ground
    4,                       !- Number of Vertices
    0.000000,0.000000,3.047800,  !- X,Y,Z ==> Vertex 1 {m}
    0.000000,0.000000,0.000000,  !- X,Y,Z ==> Vertex 2 {m}
    11.581800,0.000000,0.000000,  !- X,Y,Z ==> Vertex 3 {m}
    11.581800,0.000000,3.047800;  !- X,Y,Z ==> Vertex 4 {m}

  BuildingSurface:Detailed,
    m NIWall SEA,            !- Name
    Wall,                    !- Surface Type
    int_wall,                !- Construction Name
    M SE Apartment,          !- Zone Name
    Zone,                    !- Outside Boundary Condition
    M Corridor,              !- Outside Boundary Condition Object
    NoSun,                   !- Sun Exposure
    NoWind,                  !- Wind Exposure
    0.0,                     !- View Factor to Ground
    4,                       !- Number of Vertices
    11.581800,7.619600,3.047800,  !- X,Y,Z ==> Vertex 1 {m}
    11.581800,7.619600,0.000000,  !- X,Y,Z ==> Vertex 2 {m}
    0.000000,7.619600,0.000000,  !- X,Y,Z ==> Vertex 3 {m}
    0.000000,7.619600,3.047800;  !- X,Y,Z ==> Vertex 4 {m}

  BuildingSurface:Detailed,
    m NWall NEA,             !- Name
    Wall,                    !- Surface Type
    res_ext_wall,            !- Construction Name
    M NE Apartment,          !- Zone Name
    Outdoors,                !- Outside Boundary Condition
    ,                        !- Outside Boundary Condition Object
    SunExposed,              !- Sun Exposure
    WindExposed,             !- Wind Exposure
    AutoCalculate,           !- View Factor to Ground
    4,                       !- Number of Vertices
    11.581800,7.619600,3.047800,  !- X,Y,Z ==> Vertex 1 {m}
    11.581800,7.619600,0.000000,  !- X,Y,Z ==> Vertex 2 {m}
    0.000000,7.619600,0.000000,  !- X,Y,Z ==> Vertex 3 {m}
    0.000000,7.619600,3.047800;  !- X,Y,Z ==> Vertex 4 {m}

  BuildingSurface:Detailed,
    m EWall NEA,             !- Name
    Wall,                    !- Surface Type
    res_ext_wall,            !- Construction Name
    M NE Apartment,          !- Zone Name
    Outdoors,                !- Outside Boundary Condition
    ,                        !- Outside Boundary Condition Object
    SunExposed,              !- Sun Exposure
    WindExposed,             !- Wind Exposure
    AutoCalculate,           !- View Factor to Ground
    4,                       !- Number of Vertices
    11.581800,0.000000,3.047800,  !- X,Y,Z ==> Vertex 1 {m}
    11.581800,0.000000,0.000000,  !- X,Y,Z ==> Vertex 2 {m}
    11.581800,7.619600,0.000000,  !- X,Y,Z ==> Vertex 3 {m}
    11.581800,7.619600,3.047800;  !- X,Y,Z ==> Vertex 4 {m}

  BuildingSurface:Detailed,
    m GFloor NEA,            !- Name
    Floor,                   !- Surface Type
    int_slab_floor,          !- Construction Name
    M NE Apartment,          !- Zone Name
    adiabatic,                 !- Outside Boundary Condition
    ,           !- Outside Boundary Condition Object
    NoSun,                   !- Sun Exposure
    NoWind,                  !- Wind Exposure
    AutoCalculate,           !- View Factor to Ground
    4,                       !- Number of Vertices
    0.000000,7.619600,0.000000,  !- X,Y,Z ==> Vertex 1 {m}
    11.581800,7.619600,0.000000,  !- X,Y,Z ==> Vertex 2 {m}
    11.581800,0.000000,0.000000,  !- X,Y,Z ==> Vertex 3 {m}
    0.000000,0.000000,0.000000;  !- X,Y,Z ==> Vertex 4 {m}

  BuildingSurface:Detailed,
    m Ceilin NEA,            !- Name
    Ceiling,                 !- Surface Type
    int_slab_ceiling,        !- Construction Name
    M NE Apartment,          !- Zone Name
    adiabatic,                 !- Outside Boundary Condition
    ,           !- Outside Boundary Condition Object
    NoSun,                   !- Sun Exposure
    NoWind,                  !- Wind Exposure
    0.0,                     !- View Factor to Ground
    4,                       !- Number of Vertices
    11.581800,0.000000,3.047800,  !- X,Y,Z ==> Vertex 1 {m}
    11.581800,7.619600,3.047800,  !- X,Y,Z ==> Vertex 2 {m}
    0.000000,7.619600,3.047800,  !- X,Y,Z ==> Vertex 3 {m}
    0.000000,0.000000,3.047800;  !- X,Y,Z ==> Vertex 4 {m}

  BuildingSurface:Detailed,
    m SIWall NEA,            !- Name
    Wall,                    !- Surface Type
    int_wall,                !- Construction Name
    M NE Apartment,          !- Zone Name
    Zone,                    !- Outside Boundary Condition
    M Corridor,              !- Outside Boundary Condition Object
    NoSun,                   !- Sun Exposure
    NoWind,                  !- Wind Exposure
    AutoCalculate,           !- View Factor to Ground
    4,                       !- Number of Vertices
    0.000000,0.000000,3.047800,  !- X,Y,Z ==> Vertex 1 {m}
    0.000000,0.000000,0.000000,  !- X,Y,Z ==> Vertex 2 {m}
    11.581800,0.000000,0.000000,  !- X,Y,Z ==> Vertex 3 {m}
    11.581800,0.000000,3.047800;  !- X,Y,Z ==> Vertex 4 {m}

  BuildingSurface:Detailed,
    m NWall N1A,             !- Name
    Wall,                    !- Surface Type
    res_ext_wall,            !- Construction Name
    M N1 Apartment,          !- Zone Name
    Outdoors,                !- Outside Boundary Condition
    ,                        !- Outside Boundary Condition Object
    SunExposed,              !- Sun Exposure
    WindExposed,             !- Wind Exposure
    AutoCalculate,           !- View Factor to Ground
    4,                       !- Number of Vertices
    11.581800,7.619600,3.047800,  !- X,Y,Z ==> Vertex 1 {m}
    11.581800,7.619600,0.000000,  !- X,Y,Z ==> Vertex 2 {m}
    0.000000,7.619600,0.000000,  !- X,Y,Z ==> Vertex 3 {m}
    0.000000,7.619600,3.047800;  !- X,Y,Z ==> Vertex 4 {m}

  BuildingSurface:Detailed,
    m GFloor N1A,            !- Name
    Floor,                   !- Surface Type
    int_slab_floor,          !- Construction Name
    M N1 Apartment,          !- Zone Name
    adiabatic,                 !- Outside Boundary Condition
    ,           !- Outside Boundary Condition Object
    NoSun,                   !- Sun Exposure
    NoWind,                  !- Wind Exposure
    AutoCalculate,           !- View Factor to Ground
    4,                       !- Number of Vertices
    0.000000,7.619600,0.000000,  !- X,Y,Z ==> Vertex 1 {m}
    11.581800,7.619600,0.000000,  !- X,Y,Z ==> Vertex 2 {m}
    11.581800,0.000000,0.000000,  !- X,Y,Z ==> Vertex 3 {m}
    0.000000,0.000000,0.000000;  !- X,Y,Z ==> Vertex 4 {m}

  BuildingSurface:Detailed,
    m Ceilin N1A,            !- Name
    Ceiling,                 !- Surface Type
    int_slab_ceiling,        !- Construction Name
    M N1 Apartment,          !- Zone Name
    adiabatic,                 !- Outside Boundary Condition
    ,           !- Outside Boundary Condition Object
    NoSun,                   !- Sun Exposure
    NoWind,                  !- Wind Exposure
    AutoCalculate,           !- View Factor to Ground
    4,                       !- Number of Vertices
    11.581800,0.000000,3.047800,  !- X,Y,Z ==> Vertex 1 {m}
    11.581800,7.619600,3.047800,  !- X,Y,Z ==> Vertex 2 {m}
    0.000000,7.619600,3.047800,  !- X,Y,Z ==> Vertex 3 {m}
    0.000000,0.000000,3.047800;  !- X,Y,Z ==> Vertex 4 {m}

  BuildingSurface:Detailed,
    m SIWall N1A,            !- Name
    Wall,                    !- Surface Type
    int_wall,                !- Construction Name
    M N1 Apartment,          !- Zone Name
    Zone,                    !- Outside Boundary Condition
    M Corridor,              !- Outside Boundary Condition Object
    NoSun,                   !- Sun Exposure
    NoWind,                  !- Wind Exposure
    0.0,                     !- View Factor to Ground
    4,                       !- Number of Vertices
    0.000000,0.000000,3.047800,  !- X,Y,Z ==> Vertex 1 {m}
    0.000000,0.000000,0.000000,  !- X,Y,Z ==> Vertex 2 {m}
    11.581800,0.000000,0.000000,  !- X,Y,Z ==> Vertex 3 {m}
    11.581800,0.000000,3.047800;  !- X,Y,Z ==> Vertex 4 {m}

  BuildingSurface:Detailed,
    m EIWALL N1A,            !- Name
    Wall,                    !- Surface Type
    int_wall,                !- Construction Name
    M N1 Apartment,          !- Zone Name
    Zone,                    !- Outside Boundary Condition
    M N2 Apartment,          !- Outside Boundary Condition Object
    NoSun,                   !- Sun Exposure
    NoWind,                  !- Wind Exposure
    AutoCalculate,           !- View Factor to Ground
    4,                       !- Number of Vertices
    11.581800,0.000000,3.047800,  !- X,Y,Z ==> Vertex 1 {m}
    11.581800,0.000000,0.000000,  !- X,Y,Z ==> Vertex 2 {m}
    11.581800,7.619600,0.000000,  !- X,Y,Z ==> Vertex 3 {m}
    11.581800,7.619600,3.047800;  !- X,Y,Z ==> Vertex 4 {m}

  BuildingSurface:Detailed,
    m NWall N2A,             !- Name
    Wall,                    !- Surface Type
    res_ext_wall,            !- Construction Name
    M N2 Apartment,          !- Zone Name
    Outdoors,                !- Outside Boundary Condition
    ,                        !- Outside Boundary Condition Object
    SunExposed,              !- Sun Exposure
    WindExposed,             !- Wind Exposure
    AutoCalculate,           !- View Factor to Ground
    4,                       !- Number of Vertices
    11.581800,7.619600,3.047800,  !- X,Y,Z ==> Vertex 1 {m}
    11.581800,7.619600,0.000000,  !- X,Y,Z ==> Vertex 2 {m}
    0.000000,7.619600,0.000000,  !- X,Y,Z ==> Vertex 3 {m}
    0.000000,7.619600,3.047800;  !- X,Y,Z ==> Vertex 4 {m}

  BuildingSurface:Detailed,
    m GFloor N2A,            !- Name
    Floor,                   !- Surface Type
    int_slab_floor,          !- Construction Name
    M N2 Apartment,          !- Zone Name
    adiabatic,                 !- Outside Boundary Condition
    ,           !- Outside Boundary Condition Object
    NoSun,                   !- Sun Exposure
    NoWind,                  !- Wind Exposure
    AutoCalculate,           !- View Factor to Ground
    4,                       !- Number of Vertices
    0.000000,7.619600,0.000000,  !- X,Y,Z ==> Vertex 1 {m}
    11.581800,7.619600,0.000000,  !- X,Y,Z ==> Vertex 2 {m}
    11.581800,0.000000,0.000000,  !- X,Y,Z ==> Vertex 3 {m}
    0.000000,0.000000,0.000000;  !- X,Y,Z ==> Vertex 4 {m}

  BuildingSurface:Detailed,
    m Ceilin N2A,            !- Name
    Ceiling,                 !- Surface Type
    int_slab_ceiling,        !- Construction Name
    M N2 Apartment,          !- Zone Name
    adiabatic,                 !- Outside Boundary Condition
    ,           !- Outside Boundary Condition Object
    NoSun,                   !- Sun Exposure
    NoWind,                  !- Wind Exposure
    AutoCalculate,           !- View Factor to Ground
    4,                       !- Number of Vertices
    11.581800,0.000000,3.047800,  !- X,Y,Z ==> Vertex 1 {m}
    11.581800,7.619600,3.047800,  !- X,Y,Z ==> Vertex 2 {m}
    0.000000,7.619600,3.047800,  !- X,Y,Z ==> Vertex 3 {m}
    0.000000,0.000000,3.047800;  !- X,Y,Z ==> Vertex 4 {m}

  BuildingSurface:Detailed,
    m SIWall N2A,            !- Name
    Wall,                    !- Surface Type
    int_wall,                !- Construction Name
    M N2 Apartment,          !- Zone Name
    Zone,                    !- Outside Boundary Condition
    M Corridor,              !- Outside Boundary Condition Object
    NoSun,                   !- Sun Exposure
    NoWind,                  !- Wind Exposure
    0.0,                     !- View Factor to Ground
    4,                       !- Number of Vertices
    0.000000,0.000000,3.047800,  !- X,Y,Z ==> Vertex 1 {m}
    0.000000,0.000000,0.000000,  !- X,Y,Z ==> Vertex 2 {m}
    11.581800,0.000000,0.000000,  !- X,Y,Z ==> Vertex 3 {m}
    11.581800,0.000000,3.047800;  !- X,Y,Z ==> Vertex 4 {m}

  BuildingSurface:Detailed,
    m EIWALL N2A,            !- Name
    Wall,                    !- Surface Type
    int_wall,                !- Construction Name
    M N2 Apartment,          !- Zone Name
    Zone,                    !- Outside Boundary Condition
    M NE Apartment,          !- Outside Boundary Condition Object
    NoSun,                   !- Sun Exposure
    NoWind,                  !- Wind Exposure
    AutoCalculate,           !- View Factor to Ground
    4,                       !- Number of Vertices
    11.581800,0.000000,3.047800,  !- X,Y,Z ==> Vertex 1 {m}
    11.581800,0.000000,0.000000,  !- X,Y,Z ==> Vertex 2 {m}
    11.581800,7.619600,0.000000,  !- X,Y,Z ==> Vertex 3 {m}
    11.581800,7.619600,3.047800;  !- X,Y,Z ==> Vertex 4 {m}

  BuildingSurface:Detailed,
    m GFloor S1A,            !- Name
    Floor,                   !- Surface Type
    int_slab_floor,          !- Construction Name
    M S1 Apartment,          !- Zone Name
     adiabatic,                 !- Outside Boundary Condition
    ,           !- Outside Boundary Condition Object
    NoSun,                   !- Sun Exposure
    NoWind,                  !- Wind Exposure
    AutoCalculate,           !- View Factor to Ground
    4,                       !- Number of Vertices
    0.000000,7.619600,0.000000,  !- X,Y,Z ==> Vertex 1 {m}
    11.581800,7.619600,0.000000,  !- X,Y,Z ==> Vertex 2 {m}
    11.581800,0.000000,0.000000,  !- X,Y,Z ==> Vertex 3 {m}
    0.000000,0.000000,0.000000;  !- X,Y,Z ==> Vertex 4 {m}

  BuildingSurface:Detailed,
    m Ceilin S1A,            !- Name
    Ceiling,                 !- Surface Type
    int_slab_ceiling,        !- Construction Name
    M S1 Apartment,          !- Zone Name
    adiabatic,                 !- Outside Boundary Condition
    ,           !- Outside Boundary Condition Object
    NoSun,                   !- Sun Exposure
    NoWind,                  !- Wind Exposure
    AutoCalculate,           !- View Factor to Ground
    4,                       !- Number of Vertices
    11.581800,0.000000,3.047800,  !- X,Y,Z ==> Vertex 1 {m}
    11.581800,7.619600,3.047800,  !- X,Y,Z ==> Vertex 2 {m}
    0.000000,7.619600,3.047800,  !- X,Y,Z ==> Vertex 3 {m}
    0.000000,0.000000,3.047800;  !- X,Y,Z ==> Vertex 4 {m}

  BuildingSurface:Detailed,
    m SWall S1A,             !- Name
    Wall,                    !- Surface Type
    res_ext_wall,            !- Construction Name
    M S1 Apartment,          !- Zone Name
    Outdoors,                !- Outside Boundary Condition
    ,                        !- Outside Boundary Condition Object
    SunExposed,              !- Sun Exposure
    WindExposed,             !- Wind Exposure
    AutoCalculate,           !- View Factor to Ground
    4,                       !- Number of Vertices
    0.000000,0.000000,3.047800,  !- X,Y,Z ==> Vertex 1 {m}
    0.000000,0.000000,0.000000,  !- X,Y,Z ==> Vertex 2 {m}
    11.581800,0.000000,0.000000,  !- X,Y,Z ==> Vertex 3 {m}
    11.581800,0.000000,3.047800;  !- X,Y,Z ==> Vertex 4 {m}

  BuildingSurface:Detailed,
    m NIWall S1A,            !- Name
    Wall,                    !- Surface Type
    int_wall,                !- Construction Name
    M S1 Apartment,          !- Zone Name
    Zone,                    !- Outside Boundary Condition
    M Corridor,              !- Outside Boundary Condition Object
    NoSun,                   !- Sun Exposure
    NoWind,                  !- Wind Exposure
    0.0,                     !- View Factor to Ground
    4,                       !- Number of Vertices
    11.581800,7.619600,3.047800,  !- X,Y,Z ==> Vertex 1 {m}
    11.581800,7.619600,0.000000,  !- X,Y,Z ==> Vertex 2 {m}
    0.000000,7.619600,0.000000,  !- X,Y,Z ==> Vertex 3 {m}
    0.000000,7.619600,3.047800;  !- X,Y,Z ==> Vertex 4 {m}

  BuildingSurface:Detailed,
    m EIWALL S1A,            !- Name
    Wall,                    !- Surface Type
    int_wall,                !- Construction Name
    M S1 Apartment,          !- Zone Name
    Zone,                    !- Outside Boundary Condition
    M S2 Apartment,          !- Outside Boundary Condition Object
    NoSun,                   !- Sun Exposure
    NoWind,                  !- Wind Exposure
    AutoCalculate,           !- View Factor to Ground
    4,                       !- Number of Vertices
    11.581800,0.000000,3.047800,  !- X,Y,Z ==> Vertex 1 {m}
    11.581800,0.000000,0.000000,  !- X,Y,Z ==> Vertex 2 {m}
    11.581800,7.619600,0.000000,  !- X,Y,Z ==> Vertex 3 {m}
    11.581800,7.619600,3.047800;  !- X,Y,Z ==> Vertex 4 {m}

  BuildingSurface:Detailed,
    m GFloor S2A,            !- Name
    Floor,                   !- Surface Type
    int_slab_floor,          !- Construction Name
    M S2 Apartment,          !- Zone Name
    adiabatic,                 !- Outside Boundary Condition
    ,           !- Outside Boundary Condition Object
    NoSun,                   !- Sun Exposure
    NoWind,                  !- Wind Exposure
    AutoCalculate,           !- View Factor to Ground
    4,                       !- Number of Vertices
    0.000000,7.619600,0.000000,  !- X,Y,Z ==> Vertex 1 {m}
    11.581800,7.619600,0.000000,  !- X,Y,Z ==> Vertex 2 {m}
    11.581800,0.000000,0.000000,  !- X,Y,Z ==> Vertex 3 {m}
    0.000000,0.000000,0.000000;  !- X,Y,Z ==> Vertex 4 {m}

  BuildingSurface:Detailed,
    m Ceilin S2A,            !- Name
    Ceiling,                 !- Surface Type
    int_slab_ceiling,        !- Construction Name
    M S2 Apartment,          !- Zone Name
[...]
    No,                      !- High Humidity Control Flag
    ,                        !- Humidistat Control Zone Name
    1,                       !- High Humidity Outdoor Air Flow Ratio
    No;                      !- Control High Indoor Humidity Based on Outdoor Humidity ratio

OutdoorAir:Node,
    M N1 Apartment Outside Air Node;  !- 1st Node name or node list name



  HeatExchanger:AirToAir:SensibleAndLatent,
    M N1 Apartment OA Heat Exchanger,  !- Name
    AllOn_Except_DD,         !- Availability Schedule Name
    AUTOSIZE,                !- Nominal Supply Air Flow Rate {m3/s}
    0,  !- Sensible Effectiveness at 100% Heating Air Flow {dimensionless}
    0,  !- Latent Effectiveness at 100% Heating Air Flow {dimensionless}
    0,  !- Sensible Effectiveness at 75% Heating Air Flow {dimensionless}
    0,  !- Latent Effectiveness at 75% Heating Air Flow {dimensionless}
    0,  !- Sensible Effectiveness at 100% Cooling Air Flow {dimensionless}
    0,  !- Latent Effectiveness at 100% Cooling Air Flow {dimensionless}
    0,  !- Sensible Effectiveness at 75% Cooling Air Flow {dimensionless}
    0,  !- Latent Effectiveness at 75% Cooling Air Flow {dimensionless}
    M N1 Apartment Outside Air Node,  !- Supply Air Inlet Node Name
    M N1 Apartment ERV Outlet Node,  !- Supply Air Outlet Node Name
    M N1 Apartment Zone Exhaust Node,  !- Exhaust Air Inlet Node Name
    M N1 Apartment ERV Secondary Outlet Node,  !- Exhaust Air Outlet Node Name
    0,                       !- Nominal Electric Power {W}
    No,                      !- Supply Air Outlet Temperature Control
    Rotary,                  !- Heat Exchanger Type
    ExhaustOnly,             !- Frost Control Type
    -23.3,                   !- Threshold Temperature {C}
    0.167,                   !- Initial Defrost Time Fraction {dimensionless}
    1.44;                    !- Rate of Defrost Time Fraction Increase {1/K}



Fan:OnOff,
    M N1 Apartment ERV Sup Fan,  !- Name
    All On,                  !- Availability Schedule Name
    0.303158, !- Fan Total Efficiency
    233.6875, !- Pressure Rise {Pa}
    autosize,                !- Maximum Flow Rate {m3/s}
    0.48, !- Motor Efficiency
    1,                       !- Motor In Airstream Fraction
    M N1 Apartment ERV Outlet Node,  !- Air Inlet Node Name
    M N1 Apartment ERV Sup Fan Outlet Node,  !- Air Outlet Node Name
    ,                        !- Fan Power Ratio Function of Speed Ratio Curve Name
    ,                        !- Fan Efficiency Ratio Function of Speed Ratio Curve Name
    General;                 !- End-Use Subcategory

Fan:OnOff,
    M N1 Apartment ERV Exh Fan,  !- 
    All On,                  !- Availability Schedule Name
    0.303158, !- Fan Total Efficiency
    233.6875, !- Pressure Rise {Pa}
    autosize,                !- Maximum Flow Rate {m3/s}
    0.48, !- Motor Efficiency
    1,                       !- Motor In Airstream Fraction
    M N1 Apartment ERV Secondary Outlet Node,  !- Air Inlet Node Name
    M N1 Apartment ERV Exh Fan Outlet Node,  !- Air Outlet Node Name
    ,                        !- Fan Power Ratio Function of Speed Ratio Curve Name
    ,                        !- Fan Efficiency Ratio Function of Speed Ratio Curve Name
    General;                 !- End-Use Subcategory
!-   ===========  ALL OBJECTS related to CLASS: ZoneHVAC:EnergyRecoveryVentilator

ZoneHVAC:EnergyRecoveryVentilator,
    M N2 Apartment ERV,      !- Name
    All On,                  !- Availability Schedule Name
    M N2 Apartment OA Heat Exchanger,  !- Heat Exchanger Name
    0.025957109,             !- Supply Air Flow Rate {m3/s}
    0.025957109,             !- Exhaust Air Flow Rate {m3/s}
    M N2 Apartment ERV Sup Fan,  !- Supply Air Fan Name
    M N2 Apartment ERV Exh Fan,  !- Exhaust Air Fan Name
    M N2 Apartment ERV Ctrl;  !- ERV controller name

ZoneHVAC:EnergyRecoveryVentilator:Controller,
    M N2 Apartment ERV Ctrl,  !- Name
    ,                        !- Temperature High Limit {C}
    ,                        !- Temperature Low Limit {C}
    ,                        !- Enthalpy High Limit {J/kg}
    ,                        !- Dewpoint Temperature Limit {C}
    ,                        !- Electronic Enthalpy Limit Curve Name
    NoExhaustAirTemperatureLimit,  !- Exhaust Air Temperature Limit
    NoExhaustAirEnthalpyLimit,  !- Exhaust Air Enthalpy Limit
    ,                        !- Time of Day Economizer Flow Control S
    No,                      !- High Humidity Control Flag
    ,                        !- Humidistat Control Zone Name
    1,                       !- High Humidity Outdoor Air Flow Ratio
    No;                      !- Control High Indoor Humidity Based on Outdoor Humidity ratio

OutdoorAir:Node,
    M N2 Apartment Outside Air Node;  !- 1st Node name or node list name



  HeatExchanger:AirToAir:SensibleAndLatent,
    M N2 Apartment OA Heat Exchanger,  !- Name
    AllOn_Except_DD,         !- Availability Schedule Name
    AUTOSIZE,                !- Nominal Supply Air Flow Rate {m3/s}
    0,  !- Sensible Effectiveness at 100% Heating Air Flow {dimensionless}
    0,  !- Latent Effectiveness at 100% Heating Air Flow {dimensionless}
    0,  !- Sensible Effectiveness at 75% Heating Air Flow {dimensionless}
    0,  !- Latent Effectiveness at 75% Heating Air Flow {dimensionless}
    0,  !- Sensible Effectiveness at 100% Cooling Air Flow {dimensionless}
    0,  !- Latent Effectiveness at 100% Cooling Air Flow {dimensionless}
    0,  !- Sensible Effectiveness at 75% Cooling Air Flow {dimensionless}
    0,  !- Latent Effectiveness at 75% Cooling Air Flow {dimensionless}
    M N2 Apartment Outside Air Node,  !- Supply Air Inlet Node Name
    M N2 Apartment ERV Outlet Node,  !- Supply Air Outlet Node Name
    M N2 Apartment Zone Exhaust Node,  !- Exhaust Air Inlet Node Name
    M N2 Apartment ERV Secondary Outlet Node,  !- Exhaust Air Outlet Node Name
    0,                       !- Nominal Electric Power {W}
    No,                      !- Supply Air Outlet Temperature Control
    Rotary,                  !- Heat Exchanger Type
    ExhaustOnly,             !- Frost Control Type
    -23.3,                   !- Threshold Temperature {C}
    0.167,                   !- Initial Defrost Time Fraction {dimensionless}
    1.44;                    !- Rate of Defrost Time Fraction Increase {1/K}



Fan:OnOff,
    M N2 Apartment ERV Sup Fan,  !- Name
    All On,                  !- Availability Schedule Name
    0.303158, !- Fan Total Efficiency
    233.6875, !- Pressure Rise {Pa}
    autosize,                !- Maximum Flow Rate {m3/s}
    0.48, !- Motor Efficiency
    1,                       !- Motor In Airstream Fraction
    M N2 Apartment ERV Outlet Node,  !- Air Inlet Node Name
    M N2 Apartment ERV Sup Fan Outlet Node,  !- Air Outlet Node Name
    ,                        !- Fan Power Ratio Function of Speed Ratio Curve Name
    ,                        !- Fan Efficiency Ratio Function of Speed Ratio Curve Name
    General;                 !- End-Use Subcategory

Fan:OnOff,
    M N2 Apartment ERV Exh Fan,  !- 
    All On,                  !- Availability Schedule Name
    0.303158, !- Fan Total Efficiency
    233.6875, !- Pressure Rise {Pa}
    autosize,                !- Maximum Flow Rate {m3/s}
    0.48, !- Motor Efficiency
    1,                       !- Motor In Airstream Fraction
    M N2 Apartment ERV Secondary Outlet Node,  !- Air Inlet Node Name
    M N2 Apartment ERV Exh Fan Outlet Node,  !- Air Outlet Node Name
    ,                        !- Fan Power Ratio Function of Speed Ratio Curve Name
    ,                        !- Fan Efficiency Ratio Function of Speed Ratio Curve Name
    General;                 !- End-Use Subcategory
!-   ===========  ALL OBJECTS related to CLASS: ZoneHVAC:EnergyRecoveryVentilator

ZoneHVAC:EnergyRecoveryVentilator,
    M S1 Apartment ERV,      !- Name
    All On,                  !- Availability Schedule Name
    M S1 Apartment OA Heat Exchanger,  !- Heat Exchanger Name
    0.025957109,             !- Supply Air Flow Rate {m3/s}
    0.025957109,             !- Exhaust Air Flow Rate {m3/s}
    M S1 Apartment ERV Sup Fan,  !- Supply Air Fan Name
    M S1 Apartment ERV Exh Fan,  !- Exhaust Air Fan Name
    M S1 Apartment ERV Ctrl;  !- ERV controller name

ZoneHVAC:EnergyRecoveryVentilator:Controller,
    M S1 Apartment ERV Ctrl,  !- Name
    ,                        !- Temperature High Limit {C}
    ,                        !- Temperature Low Limit {C}
    ,                        !- Enthalpy High Limit {J/kg}
    ,                        !- Dewpoint Temperature Limit {C}
    ,                        !- Electronic Enthalpy Limit Curve Name
    NoExhaustAirTemperatureLimit,  !- Exhaust Air Temperature Limit
    NoExhaustAirEnthalpyLimit,  !- Exhaust Air Enthalpy Limit
    ,                        !- Time of Day Economizer Flow Control S
    No,                      !- High Humidity Control Flag
    ,                        !- Humidistat Control Zone Name
    1,                       !- High Humidity Outdoor Air Flow Ratio
    No;                      !- Control High Indoor Humidity Based on Outdoor Humidity ratio

OutdoorAir:Node,
    M S1 Apartment Outside Air Node;  !- 1st Node name or node list name



  HeatExchanger:AirToAir:SensibleAndLatent,
    M S1 Apartment OA Heat Exchanger,  !- Name
    AllOn_Except_DD,         !- Availability Schedule Name
    AUTOSIZE,                !- Nominal Supply Air Flow Rate {m3/s}
    0,  !- Sensible Effectiveness at 100% Heating Air Flow {dimensionless}
    0,  !- Latent Effectiveness at 100% Heating Air Flow {dimensionless}
    0,  !- Sensible Effectiveness at 75% Heating Air Flow {dimensionless}
    0,  !- Latent Effectiveness at 75% Heating Air Flow {dimensionless}
    0,  !- Sensible Effectiveness at 100% Cooling Air Flow {dimensionless}
    0,  !- Latent Effectiveness at 100% Cooling Air Flow {dimensionless}
    0,  !- Sensible Effectiveness at 75% Cooling Air Flow {dimensionless}
    0,  !- Latent Effectiveness at 75% Cooling Air Flow {dimensionless}
    M S1 Apartment Outside Air Node,  !- Supply Air Inlet Node Name
    M S1 Apartment ERV Outlet Node,  !- Supply Air Outlet Node Name
    M S1 Apartment Zone Exhaust Node,  !- Exhaust Air Inlet Node Name
    M S1 Apartment ERV Secondary Outlet Node,  !- Exhaust Air Outlet Node Name
    0,                       !- Nominal Electric Power {W}
    No,                      !- Supply Air Outlet Temperature Control
    Rotary,                  !- Heat Exchanger Type
    ExhaustOnly,             !- Frost Control Type
    -23.3,                   !- Threshold Temperature {C}
    0.167,                   !- Initial Defrost Time Fraction {dimensionless}
    1.44;                    !- Rate of Defrost Time Fraction Increase {1/K}



Fan:OnOff,
    M S1 Apartment ERV Sup Fan,  !- Name
    All On,                  !- Availability Schedule Name
    0.303158, !- Fan Total Efficiency
    233.6875, !- Pressure Rise {Pa}
    autosize,                !- Maximum Flow Rate {m3/s}
    0.48, !- Motor Efficiency
    1,                       !- Motor In Airstream Fraction
    M S1 Apartment ERV Outlet Node,  !- Air Inlet Node Name
    M S1 Apartment ERV Sup Fan Outlet Node,  !- Air Outlet Node Name
    ,                        !- Fan Power Ratio Function of Speed Ratio Curve Name
    ,                        !- Fan Efficiency Ratio Function of Speed Ratio Curve Name
    General;                 !- End-Use Subcategory

Fan:OnOff,
    M S1 Apartment ERV Exh Fan,  !- 
    All On,                  !- Availability Schedule Name
    0.303158, !- Fan Total Efficiency
    233.6875, !- Pressure Rise {Pa}
    autosize,                !- Maximum Flow Rate {m3/s}
    0.48, !- Motor Efficiency
    1,                       !- Motor In Airstream Fraction
    M S1 Apartment ERV Secondary Outlet Node,  !- Air Inlet Node Name
    M S1 Apartment ERV Exh Fan Outlet Node,  !- Air Outlet Node Name
    ,                        !- Fan Power Ratio Function of Speed Ratio Curve Name
    ,                        !- Fan Efficiency Ratio Function of Speed Ratio Curve Name
    General;                 !- End-Use Subcategory
!-   ===========  ALL OBJECTS related to CLASS: ZoneHVAC:EnergyRecoveryVentilator

ZoneHVAC:EnergyRecoveryVentilator,
    M S2 Apartment ERV,      !- Name
    All On,                  !- Availability Schedule Name
    M S2 Apartment OA Heat Exchanger,  !- Heat Exchanger Name
    0.025957109,             !- Supply Air Flow Rate {m3/s}
    0.025957109,             !- Exhaust Air Flow Rate {m3/s}
    M S2 Apartment ERV Sup Fan,  !- Supply Air Fan Name
    M S2 Apartment ERV Exh Fan,  !- Exhaust Air Fan Name
    M S2 Apartment ERV Ctrl;  !- ERV controller name

ZoneHVAC:EnergyRecoveryVentilator:Controller,
    M S2 Apartment ERV Ctrl,  !- Name
    ,                        !- Temperature High Limit {C}
    ,                        !- Temperature Low Limit {C}
    ,                        !- Enthalpy High Limit {J/kg}
    ,                        !- Dewpoint Temperature Limit {C}
    ,                        !- Electronic Enthalpy Limit Curve Name
    NoExhaustAirTemperatureLimit,  !- Exhaust Air Temperature Limit
    NoExhaustAirEnthalpyLimit,  !- Exhaust Air Enthalpy Limit
    ,                        !- Time of Day Economizer Flow Control S
    No,                      !- High Humidity Control Flag
    ,                        !- Humidistat Control Zone Name
    1,                       !- High Humidity Outdoor Air Flow Ratio
    No;                      !- Control High Indoor Humidity Based on Outdoor Humidity ratio

OutdoorAir:Node,
    M S2 Apartment Outside Air Node;  !- 1st Node name or node list name



  HeatExchanger:AirToAir:SensibleAndLatent,
    M S2 Apartment OA Heat Exchanger,  !- Name
    AllOn_Except_DD,         !- Availability Schedule Name
    AUTOSIZE,                !- Nominal Supply Air Flow Rate {m3/s}
    0,  !- Sensible Effectiveness at 100% Heating Air Flow {dimensionless}
    0,  !- Latent Effectiveness at 100% Heating Air Flow {dimensionless}
    0,  !- Sensible Effectiveness at 75% Heating Air Flow {dimensionless}
    0,  !- Latent Effectiveness at 75% Heating Air Flow {dimensionless}
    0,  !- Sensible Effectiveness at 100% Cooling Air Flow {dimensionless}
    0,  !- Latent Effectiveness at 100% Cooling Air Flow {dimensionless}
    0,  !- Sensible Effectiveness at 75% Cooling Air Flow {dimensionless}
    0,  !- Latent Effectiveness at 75% Cooling Air Flow {dimensionless}
    M S2 Apartment Outside Air Node,  !- Supply Air Inlet Node Name
    M S2 Apartment ERV Outlet Node,  !- Supply Air Outlet Node Name
    M S2 Apartment Zone Exhaust Node,  !- Exhaust Air Inlet Node Name
    M S2 Apartment ERV Secondary Outlet Node,  !- Exhaust Air Outlet Node Name
    0,                       !- Nominal Electric Power {W}
    No,                      !- Supply Air Outlet Temperature Control
    Rotary,                  !- Heat Exchanger Type
    ExhaustOnly,             !- Frost Control Type
    -23.3,                   !- Threshold Temperature {C}
    0.167,                   !- Initial Defrost Time Fraction {dimensionless}
    1.44;                    !- Rate of Defrost Time Fraction Increase {1/K}



Fan:OnOff,
    M S2 Apartment ERV Sup Fan,  !- Name
    All On,                  !- Availability Schedule Name
    0.303158, !- Fan Total Efficiency
    233.6875, !- Pressure Rise {Pa}
    autosize,                !- Maximum Flow Rate {m3/s}
    0.48, !- Motor Efficiency
    1,                       !- Motor In Airstream Fraction
    M S2 Apartment ERV Outlet Node,  !- Air Inlet Node Name
    M S2 Apartment ERV Sup Fan Outlet Node,  !- Air Outlet Node Name
    ,                        !- Fan Power Ratio Function of Speed Ratio Curve Name
    ,                        !- Fan Efficiency Ratio Function of Speed Ratio Curve Name
    General;                 !- End-Use Subcategory

Fan:OnOff,
    M S2 Apartment ERV Exh Fan,  !- 
    All On,                  !- Availability Schedule Name
    0.303158, !- Fan Total Efficiency
    233.6875, !- Pressure Rise {Pa}
    autosize,                !- Maximum Flow Rate {m3/s}
    0.48, !- Motor Efficiency
    1,                       !- Motor In Airstream Fraction
    M S2 Apartment ERV Secondary Outlet Node,  !- Air Inlet Node Name
    M S2 Apartment ERV Exh Fan Outlet Node,  !- Air Outlet Node Name
    ,                        !- Fan Power Ratio Function of Speed Ratio Curve Name
    ,                        !- Fan Efficiency Ratio Function of Speed Ratio Curve Name
    General;                 !- End-Use Subcategory
!-   ===========  ALL OBJECTS related to CLASS: ZoneHVAC:EnergyRecoveryVentilator
    
    
!-   ===========  ALL OBJECTS IN CLASS: UTILITYCOST:CHARGE:SIMPLE ===========

UtilityCost:Charge:Simple,
    Electricity Charges,     !- Utility Cost Charge Simple Name
    Electricity,             !- Tariff Name
    totalEnergy,             !- Source Variable
    Annual,                  !- Season
    EnergyCharges,           !- Category Variable Name
    {{Blended_Electricity_Rate}};                    !- Cost per Unit Value or Variable Name

UtilityCost:Charge:Simple,
    NaturalGas Charges,      !- Utility Cost Charge Simple Name
    NaturalGas,              !- Tariff Name
    totalEnergy,             !- Source Variable
    Annual,                  !- Season
    EnergyCharges,           !- Category Variable Name
    {{Blended_NaturalGas_Rate}};                    !- Cost per Unit Value or Variable Name


!-   ===========  ALL OBJECTS IN CLASS: LIFECYCLECOST:PARAMETERS ===========

LifeCycleCost:Parameters,
    LCC,                     !- Name
    EndOfYear,               !- Discounting Convention
    ConstantDollar,          !- Inflation Approach
    {{RealDiscountRate}},                    !- Real Discount Rate
    ,                        !- Nominal Discount Rate
    ,                        !- Inflation
    January,                 !- Base Date Month
    2022,                    !- Base Date Year
    January,                 !- Service Date Month
    2022,                    !- Service Date Year
    {{RTU_Lifetime}},                      !- Length of Study Period in Years
    ,                        !- Tax rate
    None;                    !- Depreciation Method


!-   ===========  ALL OBJECTS IN CLASS: LIFECYCLECOST:NONRECURRINGCOST ===========

EnergyManagementSystem:InternalVariable,
    Fan1_DesignFlow,         !- Name
    Supply Fan 1,            !- Internal Data Index Key Name
    Fan Maximum Mass Flow Rate;  !- Internal Data Type

EnergyManagementSystem:InternalVariable,
    Fan2_DesignFlow,         !- Name
    Supply Fan 2,            !- Internal Data Index Key Name
    Fan Maximum Mass Flow Rate;  !- Internal Data Type

EnergyManagementSystem:InternalVariable,
    Fan3_DesignFlow,         !- Name
    Supply Fan 3,            !- Internal Data Index Key Name
    Fan Maximum Mass Flow Rate;  !- Internal Data Type

EnergyManagementSystem:InternalVariable,
    Fan4_DesignFlow,         !- Name
    Supply Fan 4,            !- Internal Data Index Key Name
    Fan Maximum Mass Flow Rate;  !- Internal Data Type

EnergyManagementSystem:InternalVariable,
    Fan5_DesignFlow,         !- Name
    Supply Fan 5,            !- Internal Data Index Key Name
    Fan Maximum Mass Flow Rate;  !- Internal Data Type
	
EnergyManagementSystem:InternalVariable,
    Fan6_DesignFlow,         !- Name
    Supply Fan 6,            !- Internal Data Index Key Name
    Fan Maximum Mass Flow Rate;  !- Internal Data Type

EnergyManagementSystem:InternalVariable,
    Fan7_DesignFlow,         !- Name
    Supply Fan 7,            !- Internal Data Index Key Name
    Fan Maximum Mass Flow Rate;  !- Internal Data Type

EnergyManagementSystem:InternalVariable,
    Fan8_DesignFlow,         !- Name
    Supply Fan 8,            !- Internal Data Index Key Name
    Fan Maximum Mass Flow Rate;  !- Internal Data Type

