Version,9.0;
!-   ===========  ALL OBJECTS IN CLASS: SIMULATIONCONTROL ===========

  SimulationControl,
    Yes,                     !- Do Zone Sizing Calculation
    Yes,                     !- Do System Sizing Calculation
    Yes,                     !- Do Plant Sizing Calculation
    No,         !- Run Simulation for Sizing Periods
    YES;                      !- Run Simulation for Weather File Run Periods

!-   ===========  ALL OBJECTS IN CLASS: BUILDING ===========

 Building,
    SchoolPrimary,            !- Name
    0.0000,                  !- North Axis {deg}
    City,                    !- Terrain
    0.0400,                  !- Loads Convergence Tolerance Value
    0.2000,                  !- Temperature Convergence Tolerance Value {deltaC}
    FullInteriorAndExterior, !- Solar Distribution
    25,                      !- Maximum Number of Warmup Days
    6;                       !- Minimum Number of Warmup Days

!-   ===========  ALL OBJECTS IN CLASS: SHADOWCALCULATION ===========

  ShadowCalculation,
    AverageOverDaysInFrequency,  !- Calculation Method
    30,                      !- Calculation Frequency
    15000;                   !- Maximum Figures in Shadow Overlap Calculations

!-   ===========  ALL OBJECTS IN CLASS: SURFACECONVECTIONALGORITHM:INSIDE ===========

  SurfaceConvectionAlgorithm:Inside,TARP;

!-   ===========  ALL OBJECTS IN CLASS: SURFACECONVECTIONALGORITHM:OUTSIDE ===========

  SurfaceConvectionAlgorithm:Outside,TARP;

!-   ===========  ALL OBJECTS IN CLASS: HEATBALANCEALGORITHM ===========

  HeatBalanceAlgorithm,ConductionTransferFunction,200.0000;

!-   ===========  ALL OBJECTS IN CLASS: TIMESTEP ===========

  Timestep,6;

!-   ===========  ALL OBJECTS IN CLASS: CONVERGENCELIMITS ===========

  ConvergenceLimits,
    1,                       !- Minimum System Timestep {minutes}
    20;                      !- Maximum HVAC Iterations

!-   ===========  ALL OBJECTS IN CLASS: RUNPERIOD ===========

  RunPeriod,
    ,                        !- Name
    1,                       !- Begin Month
    1,                       !- Begin Day of Month
    ,                        !- Begin Year
    12,                      !- End Month
    31,                      !- End Day of Month
    ,                        !- End Year
    Sunday,                  !- Day of Week for Start Day
    No,                      !- Use Weather File Holidays and Special Days
    No,                      !- Use Weather File Daylight Saving Period
    No,                     !- Apply Weekend Holiday Rule
    Yes,                     !- Use Weather File Rain Indicators
    Yes;                     !- Use Weather File Snow Indicators

!-   ===========  ALL OBJECTS IN CLASS: RUNPERIODCONTROL:SPECIALDAYS ===========

  RunPeriodControl:SpecialDays,
    New Years Day,           !- Name
    January 1,               !- Start Date
    1,                       !- Duration {days}
    Holiday;                 !- Special Day Type

  RunPeriodControl:SpecialDays,
    Veterans Day,            !- Name
    November 11,             !- Start Date
    1,                       !- Duration {days}
    Holiday;                 !- Special Day Type

  RunPeriodControl:SpecialDays,
    Christmas,               !- Name
    December 25,             !- Start Date
    1,                       !- Duration {days}
    Holiday;                 !- Special Day Type

  RunPeriodControl:SpecialDays,
    Independence Day,        !- Name
    July 4,                  !- Start Date
    1,                       !- Duration {days}
    Holiday;                 !- Special Day Type

  RunPeriodControl:SpecialDays,
    MLK Day,                 !- Name
    3rd Monday in January,   !- Start Date
    1,                       !- Duration {days}
    Holiday;                 !- Special Day Type

  RunPeriodControl:SpecialDays,
    Presidents Day,          !- Name
    3rd Monday in February,  !- Start Date
    1,                       !- Duration {days}
    Holiday;                 !- Special Day Type

  RunPeriodControl:SpecialDays,
    Memorial Day,            !- Name
    Last Monday in May,      !- Start Date
    1,                       !- Duration {days}
    Holiday;                 !- Special Day Type

  RunPeriodControl:SpecialDays,
    Labor Day,               !- Name
    1st Monday in September, !- Start Date
    1,                       !- Duration {days}
    Holiday;                 !- Special Day Type

  RunPeriodControl:SpecialDays,
    Columbus Day,            !- Name
    2nd Monday in October,   !- Start Date
    1,                       !- Duration {days}
    Holiday;                 !- Special Day Type

  RunPeriodControl:SpecialDays,
    Thanksgiving,            !- Name
    4th Thursday in November,!- Start Date
    1,                       !- Duration {days}
    Holiday;                 !- Special Day Type

!-   ===========  ALL OBJECTS IN CLASS: RUNPERIODCONTROL:DAYLIGHTSAVINGTIME ===========

  RunPeriodControl:DaylightSavingTime,
    2nd Sunday in March,     !- Start Date
    1st Sunday in November;  !- End Date

!-   ===========  ALL OBJECTS IN CLASS: LOCATION ===========

{% include "climates" %}



!-   ===========  ALL OBJECTS IN CLASS: CONSTRUCTION ===========


WindowMaterial:SimpleGlazingSystem,
    Nonres Skylight Glazing Layer,           !- Name
    5.7918252,              !- U-Factor {W/m2-K}
    0.49,                     !- Solar Heat Gain Coefficient
    0.49;  
    
WindowMaterial:SimpleGlazingSystem,
    Nonres Window Glazing Layer,           !- Name
    3.2933908,              !- U-Factor {W/m2-K}
    0.39,                     !- Solar Heat Gain Coefficient
    0.39;                     !- Visible Transmittance

Construction,
    NonresSkylight_U_1.02_SHGC_0.49,  !- Name
    Nonres Skylight Glazing Layer;           !- Outside Layer

!-   ===========  ALL OBJECTS IN CLASS: SCHEDULETYPELIMITS ===========

  ScheduleTypeLimits,
    Any Number;              !- Name

  ScheduleTypeLimits,
    Fraction,                !- Name
    0.0,                     !- Lower Limit Value
    1.0,                     !- Upper Limit Value
    CONTINUOUS;              !- Numeric Type

  ScheduleTypeLimits,
    Temperature,             !- Name
    -60,                     !- Lower Limit Value
    200,                     !- Upper Limit Value
    CONTINUOUS;              !- Numeric Type

  ScheduleTypeLimits,
    On/Off,                  !- Name
    0,                       !- Lower Limit Value
    1,                       !- Upper Limit Value
    DISCRETE;                !- Numeric Type

  ScheduleTypeLimits,
    Control Type,            !- Name
    0,                       !- Lower Limit Value
    4,                       !- Upper Limit Value
    DISCRETE;                !- Numeric Type

  ScheduleTypeLimits,
    Humidity,                !- Name
    10,                      !- Lower Limit Value
    90,                      !- Upper Limit Value
    CONTINUOUS;              !- Numeric Type

  ScheduleTypeLimits,
    Number;                  !- Name


!-   ===========  ALL OBJECTS IN CLASS: SCHEDULE:COMPACT ===========


  Schedule:Compact,
    BLDG_LIGHT_BATH_SCH,     !- Name
    Fraction,                !- Schedule Type Limits Name
    Through: 6/30,           !- Field 1
    For: Weekdays,           !- Field 2
    Until: 7:00,0.1773,      !- Field 3
        Until: 21:00,0.9,               !- Field 4
        Until: 24:00,0.1773,               !- Field 5
        For: SummerDesignDay,
        Until: 24:00, 1,
        For: WinterDesignDay,
        Until: 24:00, 0,
        For: WeekEnds Holidays AllOtherDays,               !- Field 6
        Until: 24:00,0.1773,               !- Field 7
        Through: 9/1,                  !- Field 8
        For: Weekdays,               !- Field 9
        Until: 8:00,0.1773,               !- Field 10
        Until: 20:00,0.5,               !- Field 11
        Until: 24:00,0.1773,               !- Field 12
        For: SummerDesignDay,
        Until: 24:00, 1,
        For: WinterDesignDay,
        Until: 24:00, 0,
        For: WeekEnds Holidays AllOtherDays,               !- Field 13
        Until: 24:00,0.1773,               !- Field 14
        Through: 12/31,                  !- Field 15
        For: Weekdays,               !- Field 16
        Until: 7:00,0.1773,               !- Field 17
        Until: 21:00,0.9,               !- Field 18
        Until: 24:00,0.1773,               !- Field 19
        For: SummerDesignDay,
        Until: 24:00, 1,
        For: WinterDesignDay,
        Until: 24:00, 0,
        For: WeekEnds Holidays AllOtherDays,               !- Field 20
        Until: 24:00,0.1773;               !- Field 21

  Schedule:Compact,
    BLDG_LIGHT_CLASSROOM_SCH,!- Name
    Fraction,                !- Schedule Type Limits Name
    Through: 6/30,           !- Field 1
    For: Weekdays,           !- Field 2
    Until: 7:00,0.1773,      !- Field 3
        Until: 21:00,0.9,               !- Field 4
        Until: 24:00,0.1773,               !- Field 5
        For: SummerDesignDay,
        Until: 24:00, 1,
        For: WinterDesignDay,
        Until: 24:00, 0,
        For: WeekEnds Holidays AllOtherDays,               !- Field 6
        Until: 24:00,0.1773,               !- Field 7
        Through: 9/1,                  !- Field 8
        For: Weekdays,               !- Field 9
        Until: 8:00,0.1773,               !- Field 10
        Until: 20:00,0.5,               !- Field 11
        Until: 24:00,0.1773,               !- Field 12
        For: SummerDesignDay,
        Until: 24:00, 1,
        For: WinterDesignDay,
        Until: 24:00, 0,
        For: WeekEnds Holidays AllOtherDays,               !- Field 13
        Until: 24:00,0.1773,               !- Field 14
        Through: 12/31,                  !- Field 15
        For: Weekdays,               !- Field 16
        Until: 7:00,0.1773,               !- Field 17
        Until: 21:00,0.9,               !- Field 18
        Until: 24:00,0.1773,               !- Field 19
        For: SummerDesignDay,
        Until: 24:00, 1,
        For: WinterDesignDay,
        Until: 24:00, 0,
        For: WeekEnds Holidays AllOtherDays,               !- Field 20
        Until: 24:00,0.1773;               !- Field 21

  Schedule:Compact,
    BLDG_LIGHT_CORRIDOR_SCH, !- Name
    Fraction,                !- Schedule Type Limits Name
    Through: 6/30,           !- Field 1
    For: Weekdays,           !- Field 2
    Until: 7:00,0.1773,      !- Field 3
        Until: 21:00,0.9,               !- Field 4
        Until: 24:00,0.1773,               !- Field 5
        For: SummerDesignDay,
        Until: 24:00, 1,
        For: WinterDesignDay,
        Until: 24:00, 0,
        For: WeekEnds Holidays AllOtherDays,               !- Field 6
        Until: 24:00,0.1773,               !- Field 7
        Through: 9/1,                  !- Field 8
        For: Weekdays,               !- Field 9
        Until: 8:00,0.1773,               !- Field 10
        Until: 20:00,0.5,               !- Field 11
        Until: 24:00,0.1773,               !- Field 12
        For: SummerDesignDay,
        Until: 24:00, 1,
        For: WinterDesignDay,
        Until: 24:00, 0,
        For: WeekEnds Holidays AllOtherDays,               !- Field 13
        Until: 24:00,0.1773,               !- Field 14
        Through: 12/31,                  !- Field 15
        For: Weekdays,               !- Field 16
        Until: 7:00,0.1773,               !- Field 17
        Until: 21:00,0.9,               !- Field 18
        Until: 24:00,0.1773,               !- Field 19
        For: SummerDesignDay,
        Until: 24:00, 1,
        For: WinterDesignDay,
        Until: 24:00, 0,
        For: WeekEnds Holidays AllOtherDays,               !- Field 20
        Until: 24:00,0.1773;               !- Field 21

  Schedule:Compact,
    BLDG_LIGHT_GYM_SCH,      !- Name
    Fraction,                !- Schedule Type Limits Name
    Through: 6/30,           !- Field 1
    For: Weekdays,           !- Field 2
    Until: 7:00,0.1773,      !- Field 3
        Until: 21:00,0.9,               !- Field 4
        Until: 24:00,0.1773,               !- Field 5
        For: SummerDesignDay,
        Until: 24:00, 1,
        For: WinterDesignDay,
        Until: 24:00, 0,
        For: WeekEnds Holidays AllOtherDays,               !- Field 6
        Until: 24:00,0.1773,               !- Field 7
        Through: 9/1,                  !- Field 8
        For: Weekdays,               !- Field 9
        Until: 8:00,0.1773,               !- Field 10
        Until: 20:00,0.5,               !- Field 11
        Until: 24:00,0.1773,               !- Field 12
        For: SummerDesignDay,
        Until: 24:00, 1,
        For: WinterDesignDay,
        Until: 24:00, 0,
        For: WeekEnds Holidays AllOtherDays,               !- Field 13
        Until: 24:00,0.1773,               !- Field 14
        Through: 12/31,                  !- Field 15
        For: Weekdays,               !- Field 16
        Until: 7:00,0.1773,               !- Field 17
        Until: 21:00,0.9,               !- Field 18
        Until: 24:00,0.1773,               !- Field 19
        For: SummerDesignDay,
        Until: 24:00, 1,
        For: WinterDesignDay,
        Until: 24:00, 0,
        For: WeekEnds Holidays AllOtherDays,               !- Field 20
        Until: 24:00,0.1773;               !- Field 21

  Schedule:Compact,
    BLDG_LIGHT_LIBRARY_SCH,  !- Name
    Fraction,                !- Schedule Type Limits Name
    Through: 6/30,           !- Field 1
    For: Weekdays,           !- Field 2
    Until: 7:00,0.1773,      !- Field 3
        Until: 21:00,0.9,               !- Field 4
        Until: 24:00,0.1773,               !- Field 5
        For: SummerDesignDay,
        Until: 24:00, 1,
        For: WinterDesignDay,
        Until: 24:00, 0,
        For: WeekEnds Holidays AllOtherDays,               !- Field 6
        Until: 24:00,0.1773,               !- Field 7
        Through: 9/1,                  !- Field 8
        For: Weekdays,               !- Field 9
        Until: 8:00,0.1773,               !- Field 10
        Until: 20:00,0.5,               !- Field 11
        Until: 24:00,0.1773,               !- Field 12
        For: SummerDesignDay,
        Until: 24:00, 1,
        For: WinterDesignDay,
        Until: 24:00, 0,
        For: WeekEnds Holidays AllOtherDays,               !- Field 13
        Until: 24:00,0.1773,               !- Field 14
        Through: 12/31,                  !- Field 15
        For: Weekdays,               !- Field 16
        Until: 7:00,0.1773,               !- Field 17
        Until: 21:00,0.9,               !- Field 18
        Until: 24:00,0.1773,               !- Field 19
        For: SummerDesignDay,
        Until: 24:00, 1,
        For: WinterDesignDay,
        Until: 24:00, 0,
        For: WeekEnds Holidays AllOtherDays,               !- Field 20
        Until: 24:00,0.1773;               !- Field 21

  Schedule:Compact,
    BLDG_LIGHT_LOBBYFLR1_SCH,!- Name
    Fraction,                !- Schedule Type Limits Name
    Through: 6/30,           !- Field 1
    For: Weekdays,           !- Field 2
    Until: 7:00,0.1773,      !- Field 3
        Until: 21:00,0.9,               !- Field 4
        Until: 24:00,0.1773,               !- Field 5
        For: SummerDesignDay,
        Until: 24:00, 1,
        For: WinterDesignDay,
        Until: 24:00, 0,
        For: WeekEnds Holidays AllOtherDays,               !- Field 6
        Until: 24:00,0.1773,               !- Field 7
        Through: 9/1,                  !- Field 8
        For: Weekdays,               !- Field 9
        Until: 8:00,0.1773,               !- Field 10
        Until: 20:00,0.5,               !- Field 11
        Until: 24:00,0.1773,               !- Field 12
        For: SummerDesignDay,
        Until: 24:00, 1,
        For: WinterDesignDay,
        Until: 24:00, 0,
        For: WeekEnds Holidays AllOtherDays,               !- Field 13
        Until: 24:00,0.1773,               !- Field 14
        Through: 12/31,                  !- Field 15
        For: Weekdays,               !- Field 16
        Until: 7:00,0.1773,               !- Field 17
        Until: 21:00,0.9,               !- Field 18
        Until: 24:00,0.1773,               !- Field 19
        For: SummerDesignDay,
        Until: 24:00, 1,
        For: WinterDesignDay,
        Until: 24:00, 0,
        For: WeekEnds Holidays AllOtherDays,               !- Field 20
        Until: 24:00,0.1773;               !- Field 21

  Schedule:Compact,
    BLDG_LIGHT_OFFICE_SCH,   !- Name
    Fraction,                !- Schedule Type Limits Name
    Through: 6/30,           !- Field 1
    For: Weekdays,           !- Field 2
    Until: 7:00,0.1773,      !- Field 3
        Until: 21:00,0.9,               !- Field 4
        Until: 24:00,0.1773,               !- Field 5
        For: SummerDesignDay,
        Until: 24:00, 1,
        For: WinterDesignDay,
        Until: 24:00, 0,
        For: WeekEnds Holidays AllOtherDays,               !- Field 6
        Until: 24:00,0.1773,               !- Field 7
        Through: 9/1,                  !- Field 8
        For: Weekdays,               !- Field 9
        Until: 8:00,0.1773,               !- Field 10
        Until: 20:00,0.5,               !- Field 11
        Until: 24:00,0.1773,               !- Field 12
        For: SummerDesignDay,
        Until: 24:00, 1,
        For: WinterDesignDay,
        Until: 24:00, 0,
        For: WeekEnds Holidays AllOtherDays,               !- Field 13
        Until: 24:00,0.1773,               !- Field 14
        Through: 12/31,                  !- Field 15
        For: Weekdays,               !- Field 16
        Until: 7:00,0.1773,               !- Field 17
        Until: 21:00,0.9,               !- Field 18
        Until: 24:00,0.1773,               !- Field 19
        For: SummerDesignDay,
        Until: 24:00, 1,
        For: WinterDesignDay,
        Until: 24:00, 0,
        For: WeekEnds Holidays AllOtherDays,               !- Field 20
        Until: 24:00,0.1773;               !- Field 21
        
        
Schedule:Compact,
    Supply-Temp-Schedule,    !- Name
    Temperature,             !- Schedule Type Limits Name
    Through: 12/31,          !- Field 1
    For: AllDays,            !- Field 2
    Until: 24:00,            !- Field 3
    12.8;                    !- Field 4

  Schedule:Compact,
    BLDG_LIGHT_SCH,          !- Name
    Fraction,                !- Schedule Type Limits Name
    Through: 6/30,           !- Field 1
    For: Weekdays,           !- Field 2
    Until: 7:00,0.1773,      !- Field 3
        Until: 21:00,0.9,               !- Field 4
        Until: 24:00,0.1773,               !- Field 5
        For: SummerDesignDay,
        Until: 24:00, 1,
        For: WinterDesignDay,
        Until: 24:00, 0,
        For: WeekEnds Holidays AllOtherDays,               !- Field 6
        Until: 24:00,0.1773,               !- Field 7
        Through: 9/1,                  !- Field 8
        For: Weekdays,               !- Field 9
        Until: 8:00,0.1773,               !- Field 10
        Until: 20:00,0.5,               !- Field 11
        Until: 24:00,0.1773,               !- Field 12
        For: SummerDesignDay,
        Until: 24:00, 1,
        For: WinterDesignDay,
        Until: 24:00, 0,
        For: WeekEnds Holidays AllOtherDays,               !- Field 13
        Until: 24:00,0.1773,               !- Field 14
        Through: 12/31,                  !- Field 15
        For: Weekdays,               !- Field 16
        Until: 7:00,0.1773,               !- Field 17
        Until: 21:00,0.9,               !- Field 18
        Until: 24:00,0.1773,               !- Field 19
        For: SummerDesignDay,
        Until: 24:00, 1,
        For: WinterDesignDay,
        Until: 24:00, 0,
        For: WeekEnds Holidays AllOtherDays,               !- Field 20
        Until: 24:00,0.1773;               !- Field 21




















  Schedule:Compact,
    BLDG_EQUIP_SCH,          !- Name
    Fraction,                !- Schedule Type Limits Name
    Through: 6/30,           !- Field 1
    For: SummerDesignDay,    !- Field 2
    Until: 08:00,0.35,       !- Field 3
    Until: 17:00,0.95,       !- Field 5
    Until: 24:00,0.35,       !- Field 7
    For: WinterDesignDay,    !- Field 9
    Until: 24:00,0.35,       !- Field 10
    For: Weekdays, !- Field 2
    Until: 08:00,0.35,       !- Field 3
    Until: 17:00,0.95,       !- Field 5
    Until: 21:00,0.35,       !- Field 7
    Until: 24:00,0.35,       !- Field 7
    For: WeekEnds Holidays AllOtherDays, !- Field 9
    Until: 24:00,0.35,       !- Field 10
    Through: 9/1,            !- Field 12
    For: SummerDesignDay, !- Field 13
    Until: 08:00,0.25,       !- Field 14
    Until: 17:00,0.50,        !- Field 16
    Until: 24:00,0.25,       !- Field 18
    For: WinterDesignDay, !- Field 20
    Until: 24:00,0.25,       !- Field 21
    For: Weekdays, !- Field 13
    Until: 08:00,0.25,       !- Field 14
    Until: 17:00,0.5,        !- Field 16
    Until: 21:00,0.25,       !- Field 18
    Until: 24:00,0.25,       !- Field 18
    For: WeekEnds Holidays AllOtherDays, !- Field 20
    Until: 24:00,0.25,       !- Field 21
    Through: 12/31,          !- Field 23
    For: SummerDesignDay, !- Field 24
    Until: 08:00,0.35,       !- Field 25
    Until: 17:00,0.95,       !- Field 27
    Until: 24:00,0.35,       !- Field 29
    For: WinterDesignDay, !- Field 31
    Until: 24:00,0.35,       !- Field 32
    For: Weekdays , !- Field 24
    Until: 08:00,0.35,       !- Field 25
    Until: 17:00,0.95,       !- Field 27
    Until: 21:00,0.35,       !- Field 29
    Until: 24:00,0.35,       !- Field 29
    For: WeekEnds Holidays AllOtherDays, !- Field 31
    Until: 24:00,0.35;       !- Field 32

  Schedule:Compact,
    walkin_occ_lght_SCH,     !- Name
    Fraction,                !- Schedule Type Limits Name
    Through: 6/30,           !- Field 1
    For: Weekdays,           !- Field 2
    Until: 7:00,0.1773,      !- Field 3
    Until: 21:00,0.468,      !- Field 5
    Until: 24:00,0.1773,     !- Field 7
    For: SummerDesignDay,    !- Field 9
    Until: 24:00,1,          !- Field 10
    For: WinterDesignDay,    !- Field 12
    Until: 24:00,0,          !- Field 13
    For: WeekEnds Holidays AllOtherDays, !- Field 15
    Until: 24:00,0.1773,     !- Field 16
    Through: 9/1,            !- Field 18
    For: Weekdays,           !- Field 19
    Until: 8:00,0.1773,      !- Field 20
    Until: 20:00,0.26,       !- Field 22
    Until: 24:00,0.1773,     !- Field 24
    For: SummerDesignDay,    !- Field 26
    Until: 24:00,1,          !- Field 27
    For: WinterDesignDay,    !- Field 29
    Until: 24:00,0,          !- Field 30
    For: WeekEnds Holidays AllOtherDays, !- Field 32
    Until: 24:00,0.1773,     !- Field 33
    Through: 12/31,          !- Field 35
    For: Weekdays,           !- Field 36
    Until: 7:00,0.1773,      !- Field 37
    Until: 21:00,0.468,      !- Field 39
    Until: 24:00,0.1773,     !- Field 41
    For: SummerDesignDay,    !- Field 43
    Until: 24:00,1,          !- Field 44
    For: WinterDesignDay,    !- Field 46
    Until: 24:00,0,          !- Field 47
    For: WeekEnds Holidays AllOtherDays, !- Field 49
    Until: 24:00,0.1773;     !- Field 50

  Schedule:Compact,
    KITCHEN_ELEC_EQUIP_SCH,  !- Name
    Fraction,                !- Schedule Type Limits Name
    Through: 6/30,           !- Field 1
    For: Weekdays SummerDesignDay, !- Field 2
    Until: 08:00,0.1,        !- Field 3
    Until: 10:00,0.15,       !- Field 5
    Until: 13:00,0.25,       !- Field 7
    Until: 15:00,0.15,       !- Field 9
    Until: 24:00,0.1,        !- Field 11
    For: WeekEnds WinterDesignDay Holidays AllOtherDays, !- Field 13
    Until: 24:00,0.1,        !- Field 14
    Through: 9/1,            !- Field 16
    For: Weekdays SummerDesignDay, !- Field 17
    Until: 08:00,0.1,        !- Field 18
    Until: 10:00,0.15,       !- Field 20
    Until: 13:00,0.25,       !- Field 22
    Until: 15:00,0.15,       !- Field 24
    Until: 24:00,0.1,        !- Field 26
    For: WeekEnds WinterDesignDay Holidays AllOtherDays, !- Field 28
    Until: 24:00,0.1,        !- Field 29
    Through: 12/31,          !- Field 31
    For: Weekdays SummerDesignDay, !- Field 32
    Until: 08:00,0.1,        !- Field 33
    Until: 10:00,0.15,       !- Field 35
    Until: 13:00,0.25,       !- Field 37
    Until: 15:00,0.15,       !- Field 39
    Until: 24:00,0.1,        !- Field 41
    For: WeekEnds WinterDesignDay Holidays AllOtherDays, !- Field 43
    Until: 24:00,0.1;        !- Field 44

  Schedule:Compact,
    KITCHEN_GAS_EQUIP_SCH,   !- Name
    Fraction,                !- Schedule Type Limits Name
    Through: 6/30,           !- Field 1
    For: Weekdays SummerDesignDay, !- Field 2
    Until: 08:00,0.02,       !- Field 3
    Until: 10:00,0.15,       !- Field 5
    Until: 13:00,0.2,        !- Field 7
    Until: 15:00,0.1,        !- Field 9
    Until: 24:00,0.02,       !- Field 11
    For: WeekEnds WinterDesignDay Holidays AllOtherDays, !- Field 13
    Until: 24:00,0.02,       !- Field 14
    Through: 9/1,            !- Field 16
    For: Weekdays SummerDesignDay, !- Field 17
    Until: 08:00,0.02,       !- Field 18
    Until: 10:00,0.15,       !- Field 20
    Until: 13:00,0.2,        !- Field 22
    Until: 15:00,0.1,        !- Field 24
    Until: 24:00,0.02,       !- Field 26
    For: WeekEnds WinterDesignDay Holidays AllOtherDays, !- Field 28
    Until: 24:00,0.02,       !- Field 29
    Through: 12/31,          !- Field 31
    For: Weekdays SummerDesignDay, !- Field 32
    Until: 08:00,0.02,       !- Field 33
    Until: 10:00,0.15,       !- Field 35
    Until: 13:00,0.2,        !- Field 37
    Until: 15:00,0.1,        !- Field 39
    Until: 24:00,0.02,       !- Field 41
    For: WeekEnds WinterDesignDay Holidays AllOtherDays, !- Field 43
    Until: 24:00,0.02;       !- Field 44


  Schedule:Compact,
    BLDG_OCC_SCH,            !- Name
    Fraction,                !- Schedule Type Limits Name
    Through: 6/15,           !- Field 1
    For: Weekdays,           !- Field 2
    Until: 08:00,0,          !- Field 3
    Until: 16:00,0.95,       !- Field 5
    Until: 21:00,0.15,       !- Field 7
    Until: 24:00,0,          !- Field 9
	For: SummerDesignDay, !- Field 2
    Until: 08:00,0.000000001,          !- Field 3
    Until: 16:00,0.95,       !- Field 5
    Until: 21:00,0.15,       !- Field 7
    Until: 24:00,0.000000001,          !- Field 9
    For: WeekEnds WinterDesignDay Holidays AllOtherDays, !- Field 11
    Until: 24:00,0,          !- Field 12
    Through: 9/15,           !- Field 14
    For: Weekdays, !- Field 15
    Until: 08:00,0,          !- Field 16
    Until: 16:00,0.15,       !- Field 18
    Until: 21:00,0.15,       !- Field 20
    Until: 24:00,0,          !- Field 22
    For: SummerDesignDay, !- Field 15
    Until: 08:00,0.000000001,          !- Field 16
    Until: 16:00,0.15,       !- Field 18
    Until: 21:00,0.15,       !- Field 20
    Until: 24:00,0.000000001,          !- Field 22
    For: WeekEnds WinterDesignDay Holidays AllOtherDays, !- Field 24
    Until: 24:00,0,          !- Field 25
    Through: 12/31,          !- Field 27
    For: Weekdays, !- Field 28
    Until: 08:00,0,          !- Field 29
    Until: 16:00,0.95,       !- Field 31
    Until: 21:00,0.15,       !- Field 33
    Until: 24:00,0,          !- Field 35
    For: SummerDesignDay, !- Field 28
    Until: 08:00,0.000000001,          !- Field 29
    Until: 16:00,0.95,       !- Field 31
    Until: 21:00,0.15,       !- Field 33
    Until: 24:00,0.000000001,          !- Field 35
    For: WeekEnds WinterDesignDay Holidays AllOtherDays, !- Field 37
    Until: 24:00,0;          !- Field 38

  Schedule:Compact,
    BLDG_OCC_SCH_Extend,     !- Name
    Fraction,                !- Schedule Type Limits Name
    Through: 6/30,           !- Field 1
    For: Weekdays,           !- Field 2
    Until: 08:00,0,          !- Field 3
    Until: 16:00,0.95,       !- Field 5
    Until: 21:00,0.95,       !- Field 7
    Until: 24:00,0,          !- Field 9
    For: SummerDesignDay, !- Field 2
    Until: 08:00,0.000000001,          !- Field 3
    Until: 16:00,0.95,       !- Field 5
    Until: 21:00,0.95,       !- Field 7
    Until: 24:00,0.000000001,          !- Field 9
    For: WeekEnds WinterDesignDay Holidays AllOtherDays, !- Field 11
    Until: 24:00,0,          !- Field 12
    Through: 9/1,            !- Field 14
    For: Weekdays, !- Field 15
    Until: 08:00,0,          !- Field 16
    Until: 17:00,0.5,        !- Field 18
    Until: 21:00,0.5,        !- Field 20
    Until: 24:00,0,          !- Field 22
	For: SummerDesignDay, !- Field 15
    Until: 08:00,0.000000001,          !- Field 16
    Until: 17:00,0.5,        !- Field 18
    Until: 21:00,0.5,        !- Field 20
    Until: 24:00,0.000000001,          !- Field 22
    For: WeekEnds WinterDesignDay Holidays AllOtherDays, !- Field 24
    Until: 24:00,0,          !- Field 25
    Through: 12/31,          !- Field 27
    For: Weekdays, !- Field 28
    Until: 08:00,0,          !- Field 29
    Until: 17:00,0.95,       !- Field 31
    Until: 21:00,0.95,       !- Field 33
    Until: 24:00,0,          !- Field 35
    For: SummerDesignDay, !- Field 28
    Until: 08:00,0.000000001,          !- Field 29
    Until: 17:00,0.95,       !- Field 31
    Until: 21:00,0.95,       !- Field 33
    Until: 24:00,0.000000001,          !- Field 35
    For: WeekEnds WinterDesignDay Holidays AllOtherDays, !- Field 37
    Until: 24:00,0;          !- Field 38

  Schedule:Compact,
    BLDG_OCC_SCH_Offices,    !- Name
    Fraction,                !- Schedule Type Limits Name
    Through: 6/30,           !- Field 1
    For: Weekdays,           !- Field 2
    Until: 08:00,0,          !- Field 3
    Until: 17:00,0.95,       !- Field 5
    Until: 21:00,0.15,       !- Field 7
    Until: 24:00,0,          !- Field 9
    For: SummerDesignDay, !- Field 2
    Until: 08:00,0.000000001,          !- Field 3
    Until: 17:00,0.95,       !- Field 5
    Until: 21:00,0.15,       !- Field 7
    Until: 24:00,0.000000001,          !- Field 9
    For: WeekEnds WinterDesignDay Holidays AllOtherDays, !- Field 11
    Until: 24:00,0,          !- Field 12
    Through: 9/1,            !- Field 14
    For: Weekdays, !- Field 15
    Until: 08:00,0,          !- Field 16
    Until: 17:00,0.5,        !- Field 18
    Until: 21:00,0.15,       !- Field 20
    Until: 24:00,0,          !- Field 22
    For: SummerDesignDay, !- Field 15
    Until: 08:00,0.000000001,          !- Field 16
    Until: 17:00,0.5,        !- Field 18
    Until: 21:00,0.15,       !- Field 20
    Until: 24:00,0.000000001,          !- Field 22
    For: WeekEnds WinterDesignDay Holidays AllOtherDays, !- Field 24
    Until: 24:00,0,          !- Field 25
    Through: 12/31,          !- Field 27
    For: Weekdays, !- Field 28
    Until: 08:00,0,          !- Field 29
    Until: 17:00,0.95,       !- Field 31
    Until: 21:00,0.15,       !- Field 33
    Until: 24:00,0,          !- Field 35
    For: SummerDesignDay, !- Field 28
    Until: 08:00,0.000000001,          !- Field 29
    Until: 17:00,0.95,       !- Field 31
    Until: 21:00,0.15,       !- Field 33
    Until: 24:00,0.000000001,          !- Field 35
    For: WeekEnds WinterDesignDay Holidays AllOtherDays, !- Field 37
    Until: 24:00,0;          !- Field 38
  Schedule:Compact,
    BLDG_OCC_SCH_Offices_w_SB,   !-Name
    Fraction,   !-Schedule Type Limits Name
    Through: 6/30,
    For: Weekdays,
    Until: 01:00, 0,
    Until: 02:00, 0,
    Until: 03:00, 0,
    Until: 04:00, 0,
    Until: 05:00, 0,
    Until: 06:00, 0,
    Until: 07:00, 0,
    Until: 08:00, 0,
    Until: 09:00, 0.95,
    Until: 10:00, 0.95,
    Until: 11:00, 0.95,
    Until: 12:00, 0.95,
    Until: 13:00, 0,
    Until: 14:00, 0.95,
    Until: 15:00, 0,
    Until: 16:00, 0.95,
    Until: 17:00, 0.95,
    Until: 18:00, 0.15,
    Until: 19:00, 0.15,
    Until: 20:00, 0.15,
    Until: 21:00, 0.15,
    Until: 22:00, 0,
    Until: 23:00, 0,
    Until: 24:00, 0,
    For: SummerDesignDay,
    Until: 08:00,0.000000001,
    Until: 17:00,0.95,
    Until: 21:00,0.15,
    Until: 24:00,0.000000001,
    For: WeekEnds Holidays AllOtherDays,
    Until: 24:00,0,
    Through: 9/1,
    For: Weekdays,
    Until: 01:00, 0,
    Until: 02:00, 0,
    Until: 03:00, 0,
    Until: 04:00, 0,
    Until: 05:00, 0,
    Until: 06:00, 0,
    Until: 07:00, 0,
    Until: 08:00, 0,
    Until: 09:00, 0.5,
    Until: 10:00, 0.5,
    Until: 11:00, 0.5,
    Until: 12:00, 0,
    Until: 13:00, 0.5,
    Until: 14:00, 0.5,
    Until: 15:00, 0,
    Until: 16:00, 0.5,
    Until: 17:00, 0.5,
    Until: 18:00, 0.15,
    Until: 19:00, 0.15,
    Until: 20:00, 0.15,
    Until: 21:00, 0.15,
    Until: 22:00, 0,
    Until: 23:00, 0,
    Until: 24:00, 0,
    For: SummerDesignDay,
    Until: 08:00,0.000000001,
    Until: 17:00,0.5,
    Until: 21:00,0.15,
    Until: 24:00,0.000000001,
    For: WeekEnds Holidays AllOtherDays,
    Until: 24:00,0,
    Through: 12/31,
    For: Weekdays,
    Until: 01:00, 0,
    Until: 02:00, 0,
    Until: 03:00, 0,
    Until: 04:00, 0,
    Until: 05:00, 0,
    Until: 06:00, 0,
    Until: 07:00, 0,
    Until: 08:00, 0,
    Until: 09:00, 0.95,
    Until: 10:00, 0.95,
    Until: 11:00, 0.95,
    Until: 12:00, 0.95,
    Until: 13:00, 0,
    Until: 14:00, 0.95,
    Until: 15:00, 0,
    Until: 16:00, 0.95,
    Until: 17:00, 0.95,
    Until: 18:00, 0.15,
    Until: 19:00, 0.15,
    Until: 20:00, 0.15,
    Until: 21:00, 0.15,
    Until: 22:00, 0,
    Until: 23:00, 0,
    Until: 24:00, 0,
    For: SummerDesignDay,
    Until: 08:00,0.000000001,
    Until: 17:00,0.95,
    Until: 21:00,0.15,
    Until: 24:00,0.000000001,
    For: WeekEnds WinterDesignDay Holidays AllOtherDays,
    Until: 24:00,0;
  Schedule:Compact,
    Offices Binary Occupancy,   !-Name
    Fraction,   !-Schedule Type Limits Name
    Through: 6/30,
    For: Weekdays,
    Until: 01:00, 0,
    Until: 02:00, 0,
    Until: 03:00, 0,
    Until: 04:00, 0,
    Until: 05:00, 0,
    Until: 06:00, 0,
    Until: 07:00, 0,
    Until: 08:00, 0,
    Until: 09:00, 1,
    Until: 10:00, 1,
    Until: 11:00, 1,
    Until: 12:00, 1,
    Until: 13:00, 1,
    Until: 14:00, 1,
    Until: 15:00, 1,
    Until: 16:00, 1,
    Until: 17:00, 1,
    Until: 18:00, 1,
    Until: 19:00, 1,
    Until: 20:00, 1,
    Until: 21:00, 1,
    Until: 22:00, 0,
    Until: 23:00, 0,
    Until: 24:00, 0,
    For: SummerDesignDay,
    Until: 08:00,0.000000001,
    Until: 17:00,0.95,
    Until: 21:00,0.15,
    Until: 24:00,0.000000001,
    For: WeekEnds Holidays AllOtherDays,
    Until: 24:00,0,
    Through: 9/1,
    For: Weekdays,
    Until: 01:00, 0,
    Until: 02:00, 0,
    Until: 03:00, 0,
    Until: 04:00, 0,
    Until: 05:00, 0,
    Until: 06:00, 0,
    Until: 07:00, 0,
    Until: 08:00, 0,
    Until: 09:00, 1,
    Until: 10:00, 1,
    Until: 11:00, 1,
    Until: 12:00, 1,
    Until: 13:00, 1,
    Until: 14:00, 1,
    Until: 15:00, 1,
    Until: 16:00, 1,
    Until: 17:00, 1,
    Until: 18:00, 1,
    Until: 19:00, 1,
    Until: 20:00, 1,
    Until: 21:00, 1,
    Until: 22:00, 0,
    Until: 23:00, 0,
    Until: 24:00, 0,
    For: SummerDesignDay,
    Until: 08:00,0.000000001,
    Until: 17:00,0.5,
    Until: 21:00,0.15,
    Until: 24:00,0.000000001,
    For: WeekEnds Holidays AllOtherDays,
    Until: 24:00,0,
    Through: 12/31,
    For: Weekdays,
    Until: 01:00, 0,
    Until: 02:00, 0,
    Until: 03:00, 0,
    Until: 04:00, 0,
    Until: 05:00, 0,
    Until: 06:00, 0,
    Until: 07:00, 0,
    Until: 08:00, 0,
    Until: 09:00, 1,
    Until: 10:00, 1,
    Until: 11:00, 1,
    Until: 12:00, 1,
    Until: 13:00, 1,
    Until: 14:00, 1,
    Until: 15:00, 1,
    Until: 16:00, 1,
    Until: 17:00, 1,
    Until: 18:00, 1,
    Until: 19:00, 1,
    Until: 20:00, 1,
    Until: 21:00, 1,
    Until: 22:00, 0,
    Until: 23:00, 0,
    Until: 24:00, 0,
    For: SummerDesignDay,
    Until: 08:00,0.000000001,
    Until: 17:00,0.95,
    Until: 21:00,0.15,
    Until: 24:00,0.000000001,
    For: WeekEnds WinterDesignDay Holidays AllOtherDays,
    Until: 24:00,0;

  Schedule:Compact,
    BLDG_OCC_SCH_Gym,        !- Name
    Fraction,                !- Schedule Type Limits Name
    Through: 6/30,           !- Field 1
    For: Weekdays,           !- Field 2
    Until: 08:00,0,          !- Field 3
    Until: 16:00,0.35,       !- Field 5
    Until: 21:00,0.95,       !- Field 7
    Until: 24:00,0,          !- Field 9
    For: SummerDesignDay, !- Field 2
    Until: 08:00,0.000000001,          !- Field 3
    Until: 16:00,0.35,       !- Field 5
    Until: 21:00,0.95,       !- Field 7
    Until: 24:00,0.000000001,          !- Field 9
    For: WeekEnds WinterDesignDay Holidays AllOtherDays, !- Field 11
    Until: 24:00,0,          !- Field 12
    Through: 9/1,            !- Field 14
    For: Weekdays, !- Field 15
    Until: 08:00,0,          !- Field 16
    Until: 16:00,0.35,       !- Field 18
    Until: 21:00,0.35,       !- Field 20
    Until: 24:00,0,          !- Field 22
    For: SummerDesignDay, !- Field 15
    Until: 08:00,0.000000001,          !- Field 16
    Until: 16:00,0.35,       !- Field 18
    Until: 21:00,0.35,       !- Field 20
    Until: 24:00,0.000000001,          !- Field 22
    For: WeekEnds WinterDesignDay Holidays AllOtherDays, !- Field 24
    Until: 24:00,0,          !- Field 25
    Through: 12/31,          !- Field 27
    For: Weekdays, !- Field 28
    Until: 08:00,0,          !- Field 29
    Until: 16:00,0.35,       !- Field 31
    Until: 21:00,0.95,       !- Field 33
    Until: 24:00,0,          !- Field 35
    For: SummerDesignDay, !- Field 28
    Until: 08:00,0.000000001,          !- Field 29
    Until: 16:00,0.35,       !- Field 31
    Until: 21:00,0.95,       !- Field 33
    Until: 24:00,0.000000001,          !- Field 35
    For: WeekEnds WinterDesignDay Holidays AllOtherDays, !- Field 37
    Until: 24:00,0;          !- Field 38

  Schedule:Compact,
    BLDG_OCC_SCH_Cafeteria,  !- Name
    Fraction,                !- Schedule Type Limits Name
    Through: 6/30,           !- Field 1
    For: Weekdays,           !- Field 2
    Until: 09:00,0,          !- Field 3
    Until: 15:00,0.95,       !- Field 5
    Until: 20:00,0.35,       !- Field 7
    Until: 24:00,0,          !- Field 9
    For: SummerDesignDay, !- Field 2
    Until: 09:00,0.000000001,          !- Field 3
    Until: 15:00,0.95,       !- Field 5
    Until: 20:00,0.35,       !- Field 7
    Until: 24:00,0.000000001,          !- Field 9
    For: WeekEnds WinterDesignDay Holidays AllOtherDays, !- Field 11
    Until: 24:00,0,          !- Field 12
    Through: 9/1,            !- Field 14
    For: Weekdays, !- Field 15
    Until: 09:00,0,          !- Field 16
    Until: 17:00,0.15,       !- Field 18
    Until: 19:00,0.35,       !- Field 20
    Until: 24:00,0,          !- Field 22
    For: SummerDesignDay, !- Field 15
    Until: 09:00,0.000000001,          !- Field 16
    Until: 17:00,0.15,       !- Field 18
    Until: 19:00,0.35,       !- Field 20
    Until: 24:00,0.000000001,          !- Field 22
    For: WeekEnds WinterDesignDay Holidays AllOtherDays, !- Field 24
    Until: 24:00,0,          !- Field 25
    Through: 12/31,          !- Field 27
    For: Weekdays, !- Field 28
    Until: 09:00,0,          !- Field 29
    Until: 15:00,0.95,       !- Field 31
    Until: 20:00,0.35,       !- Field 33
    Until: 24:00,0,          !- Field 35
    For: SummerDesignDay, !- Field 28
    Until: 09:00,0.000000001,          !- Field 29
    Until: 15:00,0.95,       !- Field 31
    Until: 20:00,0.35,       !- Field 33
    Until: 24:00,0.000000001,          !- Field 35
    For: WeekEnds WinterDesignDay Holidays AllOtherDays, !- Field 37
    Until: 24:00,0;          !- Field 38



  Schedule:Compact,
    INFIL_SCH,               !- Name
    Fraction,                !- Schedule Type Limits Name
    Through: 12/31,          !- Field 1
    For: AllDays,            !- Field 2
    Until: 07:00,1,          !- Field 3
    Until: 21:00,0.5,        !- Field 5
    Until: 24:00,1;          !- Field 7

  Schedule:Compact,
    INFIL_SCH_PNNL,          !- Name
    fraction,                !- Schedule Type Limits Name
    Through: 12/31,          !- Field 1
    For: Weekdays SummerDesignDay, !- Field 2
    Until: 07:00,1.0,        !- Field 3
    Until: 21:00,0.25,       !- Field 5
    Until: 24:00,1.0,        !- Field 7
    For: WeekEnds WinterDesignDay Holidays AllOtherDays, !- Field 9
    Until: 24:00,1.0;        !- Field 10

  Schedule:Compact,
    INFIL_Door_Opening_SCH,  !- Name
    fraction,                !- Schedule Type Limits Name
    Through: 12/31,          !- Field 1
    For: Weekdays,           !- Field 2
    Until: 07:00,0.0,        !- Field 3
    Until: 08:00,1.0,        !- Field 5
    Until: 15:00,
    0.144,            !- Field 8
    Until: 16:00,1.0,        !- Field 9
    Until: 18:00,
    0.144,            !- Field 12
    Until: 24:00,0.0,        !- Field 13
    For: Saturday Sunday Holidays AllOtherDays, !- Field 15
    Until: 24:00,0.0;        !- Field 16



  Schedule:Compact,
    Booster Water Inlet Temp Schedule,  !- Name
    Any Number,              !- Schedule Type Limits Name
    THROUGH: 12/31,          !- Field 1
    FOR: AllDays,            !- Field 2
    UNTIL: 24:00,60.00;      !- Field 3



  Schedule:Compact,
    Booster Water Setpoint Temp Schedule,  !- Name
    Any Number,              !- Schedule Type Limits Name
    THROUGH: 12/31,          !- Field 1
    FOR: AllDays,            !- Field 2
    UNTIL: 24:00,82.22;      !- Field 3


  Schedule:Compact,
    BLDG_SWH_SCH,            !- Name
    Fraction,                !- Schedule Type Limits Name
    Through: 6/15,           !- Field 1
    For: SummerDesignDay,    !- Field 2
    Until: 07:00,0.05,       !- Field 3
    Until: 08:00,0.1,        !- Field 5
    Until: 09:00,0.34,       !- Field 7
    Until: 10:00,0.6,        !- Field 9
    Until: 11:00,0.63,       !- Field 11
    Until: 12:00,0.72,       !- Field 13
    Until: 13:00,0.79,       !- Field 15
    Until: 14:00,0.83,       !- Field 17
    Until: 15:00,0.61,       !- Field 19
    Until: 16:00,0.65,       !- Field 21
    Until: 18:00,0.1,        !- Field 23
    Until: 19:00,0.19,       !- Field 25
    Until: 20:00,0.25,       !- Field 27
    Until: 22:00,0.22,       !- Field 29
    Until: 23:00,0.12,       !- Field 31
    Until: 24:00,0.09,       !- Field 33
    For: Weekdays,           !- Field 35
    Until: 07:00,0.00,       !- Field 36
    Until: 08:00,0.00,       !- Field 38
    Until: 09:00,0.34,       !- Field 40
    Until: 10:00,0.6,        !- Field 42
    Until: 11:00,0.63,       !- Field 44
    Until: 12:00,0.72,       !- Field 46
    Until: 13:00,0.79,       !- Field 48
    Until: 14:00,0.83,       !- Field 50
    Until: 15:00,0.61,       !- Field 52
    Until: 16:00,0.65,       !- Field 54
    Until: 18:00,0.1,        !- Field 56
    Until: 19:00,0.19,       !- Field 58
    Until: 20:00,0.25,       !- Field 60
    Until: 22:00,0.00,       !- Field 62
    Until: 23:00,0.00,       !- Field 64
    Until: 24:00,0.00,       !- Field 66
    For: WinterDesignDay,    !- Field 68
    Until: 09:00,0.03,       !- Field 69
    Until: 13:00,0.05,       !- Field 71
    Until: 24:00,0.03,       !- Field 73
    For: Saturday,           !- Field 75
    Until: 09:00,0.00,       !- Field 76
    Until: 13:00,0.00,       !- Field 78
    Until: 24:00,0.00,       !- Field 80
    For: Sunday Holidays AllOtherDays, !- Field 82
    Until: 08:00,0.00,       !- Field 83
    Until: 14:00,0.00,       !- Field 85
    Until: 24:00,0.00,       !- Field 87
    Through: 9/15,           !- Field 89
    For: SummerDesignDay,    !- Field 90
    Until: 07:00,0.05,       !- Field 91
    Until: 18:00,0.1,        !- Field 93
    Until: 19:00,0.19,       !- Field 95
    Until: 20:00,0.25,       !- Field 97
    Until: 22:00,0.22,       !- Field 99
    Until: 23:00,0.12,       !- Field 101
    Until: 24:00,0.09,       !- Field 103
    For: Weekdays,           !- Field 105
    Until: 08:00,0.00,       !- Field 106
    Until: 18:00,0.1,        !- Field 108
    Until: 19:00,0.19,       !- Field 110
    Until: 20:00,0.25,       !- Field 112
    Until: 22:00,0.00,       !- Field 114
    Until: 23:00,0.00,       !- Field 116
    Until: 24:00,0.00,       !- Field 118
    For: WinterDesignDay,    !- Field 120
    Until: 09:00,0.03,       !- Field 121
    Until: 13:00,0.05,       !- Field 123
    Until: 24:00,0.03,       !- Field 125
    For: Saturday,           !- Field 127
    Until: 09:00,0.00,       !- Field 128
    Until: 13:00,0.00,       !- Field 130
    Until: 24:00,0.00,       !- Field 132
    For: Sunday Holidays AllOtherDays, !- Field 134
    Until: 08:00,0.00,       !- Field 135
    Until: 14:00,0.00,       !- Field 137
    Until: 24:00,0.00,       !- Field 139
    Through: 12/31,          !- Field 141
    For: SummerDesignDay,    !- Field 142
    Until: 07:00,0.05,       !- Field 143
    Until: 08:00,0.1,        !- Field 145
    Until: 09:00,0.34,       !- Field 147
    Until: 10:00,0.6,        !- Field 149
    Until: 11:00,0.63,       !- Field 151
    Until: 12:00,0.72,       !- Field 153
    Until: 13:00,0.79,       !- Field 155
    Until: 14:00,0.83,       !- Field 157
    Until: 15:00,0.61,       !- Field 159
    Until: 16:00,0.65,       !- Field 161
    Until: 18:00,0.1,        !- Field 163
    Until: 19:00,0.19,       !- Field 165
    Until: 20:00,0.25,       !- Field 167
    Until: 22:00,0.22,       !- Field 169
    Until: 23:00,0.12,       !- Field 171
    Until: 24:00,0.09,       !- Field 173
    For: Weekdays,           !- Field 175
    Until: 07:00,0.00,       !- Field 177
    Until: 08:00,0.00,       !- Field 179
    Until: 09:00,0.34,       !- Field 181
    Until: 10:00,0.6,        !- Field 183
    Until: 11:00,0.63,       !- Field 185
    Until: 12:00,0.72,       !- Field 187
    Until: 13:00,0.79,       !- Field 189
    Until: 14:00,0.83,       !- Field 191
    Until: 15:00,0.61,       !- Field 193
    Until: 16:00,0.65,       !- Field 195
    Until: 18:00,0.1,        !- Field 197
    Until: 19:00,0.19,       !- Field 199
    Until: 20:00,0.25,       !- Field 201
    Until: 22:00,0.00,       !- Field 203
    Until: 23:00,0.00,       !- Field 205
    Until: 24:00,0.00,       !- Field 207
    For: WinterDesignDay,    !- Field 209
    Until: 09:00,0.03,       !- Field 211
    Until: 13:00,0.05,       !- Field 213
    Until: 24:00,0.03,       !- Field 215
    For: Saturday,           !- Field 217
    Until: 09:00,0.00,       !- Field 219
    Until: 13:00,0.00,       !- Field 221
    Until: 24:00,0.00,       !- Field 223
    For: Sunday Holidays AllOtherDays, !- Field 225
    Until: 08:00,0.00,       !- Field 227
    Until: 14:00,0.00,       !- Field 229
    Until: 24:00,0.00;       !- Field 231

  Schedule:Compact,
    ALWAYS_ON,               !- Name
    On/Off,                  !- Schedule Type Limits Name
    Through: 12/31,          !- Field 1
    For: AllDays,            !- Field 2
    Until: 24:00,1;          !- Field 3

  Schedule:Compact,
    Exterior_Lgt_ALWAYS_ON,  !- Name
    Fraction,                !- Schedule Type Limits Name
    Through: 12/31,          !- Field 1
    For: AllDays,            !- Field 2
    Until: 24:00,1;          !- Field 3



  Schedule:Compact,
    Exterior_Lgt_189_1,      !- Name
    Fraction,                !- Schedule Type Limits Name
    Through:12/31,           !- Field 1
    For:Weekdays,            !- Field 2
    Until:  9:00,0.5,        !- Field 3
    Until: 21:00,1.0,        !- Field 5
    Until: 24:00,0.5,        !- Field 7
    For:Saturday,            !- Field 9
    Until: 24:00,0.5,        !- Field 10
    For:Sunday Holidays AllOtherDays, !- Field 12
    Until: 24:00,0.5;        !- Field 13

  Schedule:Compact,
    ALWAYS_OFF,              !- Name
    On/Off,                  !- Schedule Type Limits Name
    Through: 12/31,          !- Field 1
    For: AllDays,            !- Field 2
    Until: 24:00,0;          !- Field 3

  Schedule:Compact,
    WORK_EFF_SCH,            !- Name
    Fraction,                !- Schedule Type Limits Name
    Through: 12/31,          !- Field 1
    For: AllDays,            !- Field 2
    Until: 24:00,0;          !- Field 3

  Schedule:Compact,
    AIR_VELO_SCH,            !- Name
    Any Number,              !- Schedule Type Limits Name
    Through: 12/31,          !- Field 1
    For: AllDays,            !- Field 2
    Until: 24:00,0.2;        !- Field 3

  Schedule:Compact,
    CLOTHING_SCH,            !- Name
    Any Number,              !- Schedule Type Limits Name
    Through: 04/30,          !- Field 1
    For: AllDays,            !- Field 2
    Until: 24:00,1.1,        !- Field 3
    Through: 09/30,          !- Field 5
    For: AllDays,            !- Field 6
    Until: 24:00,0.6,        !- Field 7
    Through: 12/31,          !- Field 9
    For: AllDays,            !- Field 10
    Until: 24:00,1.1;        !- Field 11

  Schedule:Compact,
    SHADING_SCH,             !- Name
    Any Number,              !- Schedule Type Limits Name
    Through: 12/31,          !- Field 1
    For: AllDays,            !- Field 2
    Until: 24:00,0;          !- Field 3

  Schedule:Compact,
    PlantOnSched,            !- Name
    Any Number,              !- Schedule Type Limits Name
    Through: 12/31,          !- Field 1
    For: AllDays,            !- Field 2
    Until: 24:00,1;          !- Field 3

  Schedule:Compact,
    FAN_SCH,                 !- Name
    Any Number,              !- Schedule Type Limits Name
    Through: 12/31,          !- Field 1
    For: AllDays,            !- Field 2
    Until: 24:00,1;          !- Field 3

  Schedule:Compact,
    ReheatCoilAvailSched,    !- Name
    Any Number,              !- Schedule Type Limits Name
    Through: 12/31,          !- Field 1
    For: AllDays,            !- Field 2
    Until: 24:00,1;          !- Field 3

  Schedule:Compact,
    CoolingCoilAvailSched,   !- Name
    Any Number,              !- Schedule Type Limits Name
    Through: 12/31,          !- Field 1
    For: AllDays,            !- Field 2
    Until: 24:00,1;          !- Field 3

  Schedule:Compact,
    Humidity Setpoint Schedule,  !- Name
    Humidity,                !- Schedule Type Limits Name
    Through: 12/31,          !- Field 1
    For: AllDays,            !- Field 2
    Until: 24:00,65;         !- Field 3

  Schedule:Compact,
    Dual Zone Control Type Sched,  !- Name
    Control Type,            !- Schedule Type Limits Name
    Through: 12/31,          !- Field 1
    For: AllDays,            !- Field 2
    Until: 24:00,4;          !- Field 3

  Schedule:Compact,
    Seasonal-Reset-Supply-Air-Temp-Sch,  !- Name
    Temperature,             !- Schedule Type Limits Name
    Through: 03/31,          !- Field 1
    For: AllDays,            !- Field 2
    Until: 24:00,13,         !- Field 3
    Through: 09/30,          !- Field 5
    For: AllDays,            !- Field 6
    Until: 24:00,13,         !- Field 7
    Through: 12/31,          !- Field 9
    For: AllDays,            !- Field 10
    Until: 24:00,13;         !- Field 11

  Schedule:Compact,
    VAV-Supply-Air-Temp-Sch, !- Name
    Temperature,             !- Schedule Type Limits Name
    Through: 12/31,          !- Field 1
    For: AllDays,            !- Field 2
    Until: 24:00,12.8;       !- Field 3

  Schedule:Compact,
    CW-Loop-Temp-Schedule,   !- Name
    Temperature,             !- Schedule Type Limits Name
    Through: 12/31,          !- Field 1
    For: AllDays,            !- Field 2
    Until: 24:00,6.7;        !- Field 3

  Schedule:Compact,
    HW-Loop-Temp-Schedule,   !- Name
    Temperature,             !- Schedule Type Limits Name
    Through: 12/31,          !- Field 1
    For: AllDays,            !- Field 2
    Until: 24:00,82;         !- Field 3

  Schedule:Compact,
    Heating-Supply-Air-Temp-Sch,  !- Name
    Temperature,             !- Schedule Type Limits Name
    Through: 12/31,          !- Field 1
    For: AllDays,            !- Field 2
    Until: 24:00,16;         !- Field 3

  Schedule:Compact,
    Kitchen_Exhaust_SCH,     !- Name
    Fraction,                !- Schedule Type Limits Name
    Through: 6/30,           !- Field 1
    For: Weekdays SummerDesignDay WinterDesignDay, !- Field 2
    Until: 08:00,0,          !- Field 3
    Until: 17:00,1.0,        !- Field 5
    Until: 24:00,0,          !- Field 7
    For: WeekEnds  Holidays AllOtherDays, !- Field 9
    Until: 24:00,0,          !- Field 10
    Through: 9/1,            !- Field 12
    For: Weekdays SummerDesignDay WinterDesignDay, !- Field 13
    Until: 08:00,0,          !- Field 14
    Until: 17:00,1,          !- Field 16
    Until: 21:00,1.0,        !- Field 18
    Until: 24:00,0,          !- Field 20
    For: WeekEnds Holidays AllOtherDays, !- Field 22
    Until: 24:00,0,          !- Field 23
    Through: 12/31,          !- Field 25
    For: Weekdays SummerDesignDay WinterDesignDay, !- Field 26
    Until: 08:00,0,          !- Field 27
    Until: 16:00,1,          !- Field 29
    Until: 21:00,1,          !- Field 31
    Until: 24:00,0,          !- Field 33
    For: WeekEnds Holidays AllOtherDays, !- Field 35
    Until: 24:00,0;          !- Field 36



  Schedule:Compact,
    Hours_of_operation,      !- Name
    On/Off,                  !- Schedule Type Limits Name
    Through: 12/31,          !- Field 1
    For: Weekdays SummerDesignDay WinterDesignDay, !- Field 2
    Until: 07:00,0,          !- Field 3
    Until: 21:00,1,          !- Field 5
    Until: 24:00,0,          !- Field 7
    For: WeekEnds Holidays AllOtherDays, !- Field 9
    Until: 24:00,0;          !- Field 10



  Schedule:Compact,
    HTGSETP_SCH_YES_OPTIMUM_w_SB,   !-Name
    Temperature,   !-Schedule Type Limits Name
    Through: 6/30,
    For: Weekdays,
    Until: 01:00, 15.6,
    Until: 02:00, 15.6,
    Until: 03:00, 15.6,
    Until: 04:00, 15.6,
    Until: 05:00, 15.6,
    Until: 06:00, 15.6,
    Until: 07:00, 17.8,
    Until: 08:00, 20,
    Until: 09:00, 21,
    Until: 10:00, 21,
    Until: 11:00, 21,
    Until: 12:00, 21,
    Until: 13:00, 20.4444444444444,
    Until: 14:00, 21,
    Until: 15:00, 20.4444444444444,
    Until: 16:00, 21,
    Until: 17:00, 21,
    Until: 18:00, 21,
    Until: 19:00, 21,
    Until: 20:00, 21,
    Until: 21:00, 21,
    Until: 22:00, 15.6,
    Until: 23:00, 15.6,
    Until: 24:00, 15.6,
    For: SummerDesignDay,
    Until: 24:00,15.6,
    For: WinterDesignDay,
    Until: 24:00,21,
    For: WeekEnds Holidays AllOtherDays,
    Until: 24:00,15.6,
    Through: 9/1,
    For: Weekdays,
    Until: 01:00, 15.6,
    Until: 02:00, 15.6,
    Until: 03:00, 15.6,
    Until: 04:00, 15.6,
    Until: 05:00, 15.6,
    Until: 06:00, 15.6,
    Until: 07:00, 17.8,
    Until: 08:00, 20,
    Until: 09:00, 21,
    Until: 10:00, 21,
    Until: 11:00, 21,
    Until: 12:00, 20.4444444444444,
    Until: 13:00, 21,
    Until: 14:00, 21,
    Until: 15:00, 20.4444444444444,
    Until: 16:00, 21,
    Until: 17:00, 21,
    Until: 18:00, 21,
    Until: 19:00, 21,
    Until: 20:00, 21,
    Until: 21:00, 21,
    Until: 22:00, 15.6,
    Until: 23:00, 15.6,
    Until: 24:00, 15.6,
    For: SummerDesignDay,
    Until: 24:00,15.6,
    For: WinterDesignDay,
    Until: 24:00,21,
    For: WeekEnds Holidays AllOtherDays,
    Until: 24:00,15.6,
    Through: 12/31,
    For: Weekdays,
    Until: 01:00, 15.6,
    Until: 02:00, 15.6,
    Until: 03:00, 15.6,
    Until: 04:00, 15.6,
    Until: 05:00, 15.6,
    Until: 06:00, 15.6,
    Until: 07:00, 17.8,
    Until: 08:00, 20,
    Until: 09:00, 21,
    Until: 10:00, 21,
    Until: 11:00, 21,
    Until: 12:00, 21,
    Until: 13:00, 20.4444444444444,
    Until: 14:00, 21,
    Until: 15:00, 20.4444444444444,
    Until: 16:00, 21,
    Until: 17:00, 21,
    Until: 18:00, 21,
    Until: 19:00, 21,
    Until: 20:00, 21,
    Until: 21:00, 21,
    Until: 22:00, 15.6,
    Until: 23:00, 15.6,
    Until: 24:00, 15.6,
    For: SummerDesignDay,
    Until: 24:00,15.6,
    For: WinterDesignDay,
    Until: 24:00,21,
    For: WeekEnds Holidays AllOtherDays,
    Until: 24:00,15.6;

  Schedule:Compact,
    HTGSETP_SCH_YES_OPTIMUM_original,  !- Name
    Temperature,             !- Schedule Type Limits Name
    Through: 12/31,          !- Field 1
    For: SummerDesignDay,    !- Field 2
    Until: 24:00,15.6,       !- Field 3
    For: WinterDesignDay,    !- Field 5
    Until: 24:00,21,         !- Field 6
    For: Weekdays,           !- Field 8
    Until: 06:00,15.6,       !- Field 9
    Until: 07:00,17.8,       !- Field 11
    Until: 08:00,20.0,       !- Field 13
    Until: 21:00,21.0,       !- Field 15
    Until: 24:00,15.6,       !- Field 17
    For: WeekEnds Holidays AllOtherDays, !- Field 19
    Until: 24:00,15.6;       !- Field 20

  Schedule:Compact,
    HTGSETP_SCH_Setback,     !- Name
    Temperature,             !- Schedule Type Limits Name
    Through: 12/31,          !- Field 1
    For: SummerDesignDay,    !- Field 2
    Until: 24:00,15.6,       !- Field 3
    For: WinterDesignDay,    !- Field 5
    Until: 24:00,21,         !- Field 6
    For: Weekdays,           !- Field 8
    Until: 09:00,15.6,       !- Field 9
    Until: 21:00,15.6,       !- Field 11
    Until: 24:00,15.6,       !- Field 13
    For: WeekEnds Holidays AllOtherDays, !- Field 15
    Until: 24:00,15.6;       !- Field 16



  Schedule:Compact,
    HTGSETP_SCH_VAV_POD_1,   !- Name
    Temperature,             !- Schedule Type Limits Name
    Through: 12/31,          !- Field 1
    For: SummerDesignDay,    !- Field 2
    Until: 24:00,15.6,       !- Field 3
    For: WinterDesignDay,    !- Field 5
    Until: 24:00,21,         !- Field 6
    For: Weekdays,           !- Field 8
    Until: 06:00,15.6,       !- Field 9
    Until: 07:00,21.0,       !- Field 11
    Until: 08:00,21.0,       !- Field 13
    Until: 21:00,21.0,       !- Field 15
    Until: 24:00,15.6,       !- Field 17
    For: WeekEnds Holidays AllOtherDays, !- Field 19
    Until: 24:00,15.6;       !- Field 20



  Schedule:Compact,
    HTGSETP_SCH_VAV_POD_2,   !- Name
    Temperature,             !- Schedule Type Limits Name
    Through: 12/31,          !- Field 1
    For: SummerDesignDay,    !- Field 2
    Until: 24:00,15.6,       !- Field 3
    For: WinterDesignDay,    !- Field 5
    Until: 24:00,21,         !- Field 6
    For: Weekdays,           !- Field 8
    Until: 06:00,15.6,       !- Field 9
    Until: 07:00,21.0,       !- Field 11
    Until: 08:00,21.0,       !- Field 13
    Until: 21:00,21.0,       !- Field 15
    Until: 24:00,15.6,       !- Field 17
    For: WeekEnds Holidays AllOtherDays, !- Field 19
    Until: 24:00,15.6;       !- Field 20



  Schedule:Compact,
    HTGSETP_SCH_VAV_POD_3,   !- Name
    Temperature,             !- Schedule Type Limits Name
    Through: 12/31,          !- Field 1
    For: SummerDesignDay,    !- Field 2
    Until: 24:00,15.6,       !- Field 3
    For: WinterDesignDay,    !- Field 5
    Until: 24:00,21,         !- Field 6
    For: Weekdays,           !- Field 8
    Until: 06:00,15.6,       !- Field 9
    Until: 07:00,21.0,       !- Field 11
    Until: 08:00,21.0,       !- Field 13
    Until: 21:00,21.0,       !- Field 15
    Until: 24:00,15.6,       !- Field 17
    For: WeekEnds Holidays AllOtherDays, !- Field 19
    Until: 24:00,15.6;       !- Field 20



  Schedule:Compact,
    HTGSETP_SCH_VAV_OTHER,   !- Name
    Temperature,             !- Schedule Type Limits Name
    Through: 12/31,          !- Field 1
    For: SummerDesignDay,    !- Field 2
    Until: 24:00,15.6,       !- Field 3
    For: WinterDesignDay,    !- Field 5
    Until: 24:00,21,         !- Field 6
    For: Weekdays,           !- Field 8
    Until: 06:00,15.6,       !- Field 9
    Until: 07:00,21.0,       !- Field 11
    Until: 08:00,21.0,       !- Field 13
    Until: 21:00,21.0,       !- Field 15
    Until: 24:00,15.6,       !- Field 17
    For: WeekEnds Holidays AllOtherDays, !- Field 19
    Until: 24:00,15.6;       !- Field 20





  Schedule:Compact,
    CLGSETP_SCH_Yes_Optimum_w_SB,   !-Name
    Temperature,   !-Schedule Type Limits Name
    Through: 6/30,
    For: Weekdays,
    Until: 01:00, 26.7,
    Until: 02:00, 26.7,
    Until: 03:00, 26.7,
    Until: 04:00, 26.7,
    Until: 05:00, 26.7,
    Until: 06:00, 26.7,
    Until: 07:00, 25.6,
    Until: 08:00, 25,
    Until: 09:00, 24,
    Until: 10:00, 24,
    Until: 11:00, 24,
    Until: 12:00, 24,
    Until: 13:00, 24.5555555555556,
    Until: 14:00, 24,
    Until: 15:00, 24.5555555555556,
    Until: 16:00, 24,
    Until: 17:00, 24,
    Until: 18:00, 24,
    Until: 19:00, 24,
    Until: 20:00, 24,
    Until: 21:00, 24,
    Until: 22:00, 26.7,
    Until: 23:00, 26.7,
    Until: 24:00, 26.7,
    For: SummerDesignDay,
    Until: 24:00,24,
    For: WinterDesignDay,
    Until: 24:00,26.7,
    For: WeekEnds Holidays AllOtherDays,
    Until: 24:00,26.7,
    Through: 9/1,
    For: Weekdays,
    Until: 01:00, 26.7,
    Until: 02:00, 26.7,
    Until: 03:00, 26.7,
    Until: 04:00, 26.7,
    Until: 05:00, 26.7,
    Until: 06:00, 26.7,
    Until: 07:00, 25.6,
    Until: 08:00, 25,
    Until: 09:00, 24,
    Until: 10:00, 24,
    Until: 11:00, 24,
    Until: 12:00, 24.5555555555556,
    Until: 13:00, 24,
    Until: 14:00, 24,
    Until: 15:00, 24.5555555555556,
    Until: 16:00, 24,
    Until: 17:00, 24,
    Until: 18:00, 24,
    Until: 19:00, 24,
    Until: 20:00, 24,
    Until: 21:00, 24,
    Until: 22:00, 26.7,
    Until: 23:00, 26.7,
    Until: 24:00, 26.7,
    For: SummerDesignDay,
    Until: 24:00,24,
    For: WinterDesignDay,
    Until: 24:00,26.7,
    For: WeekEnds Holidays AllOtherDays,
    Until: 24:00,26.7,
    Through: 12/31,
    For: Weekdays,
    Until: 01:00, 26.7,
    Until: 02:00, 26.7,
    Until: 03:00, 26.7,
    Until: 04:00, 26.7,
    Until: 05:00, 26.7,
    Until: 06:00, 26.7,
    Until: 07:00, 25.6,
    Until: 08:00, 25,
    Until: 09:00, 24,
    Until: 10:00, 24,
    Until: 11:00, 24,
    Until: 12:00, 24,
    Until: 13:00, 24.5555555555556,
    Until: 14:00, 24,
    Until: 15:00, 24.5555555555556,
    Until: 16:00, 24,
    Until: 17:00, 24,
    Until: 18:00, 24,
    Until: 19:00, 24,
    Until: 20:00, 24,
    Until: 21:00, 24,
    Until: 22:00, 26.7,
    Until: 23:00, 26.7,
    Until: 24:00, 26.7,
    For: SummerDesignDay,
    Until: 24:00,24,
    For: WinterDesignDay,
    Until: 24:00,26.7,
    For: WeekEnds Holidays AllOtherDays,
    Until: 24:00,26.7;
  Schedule:Compact,
    CLGSETP_SCH_YES_OPTIMUM_original,  !- Name
    Temperature,             !- Schedule Type Limits Name
    Through: 12/31,          !- Field 1
    For: SummerDesignDay,    !- Field 2
    Until: 24:00,24,         !- Field 3
    For: WinterDesignDay,    !- Field 5
    Until: 24:00,26.7,       !- Field 6
    For: Weekdays,           !- Field 8
    Until: 06:00,26.7,       !- Field 9
    Until: 07:00,25.6,       !- Field 11
    Until: 08:00,25.0,       !- Field 13
    Until: 21:00,24.0,       !- Field 15
    Until: 24:00,26.7,       !- Field 17
    For: WeekEnds Holidays AllOtherDays, !- Field 19
    Until: 24:00,26.7;       !- Field 20



  Schedule:Compact,
    CLGSETP_SCH_VAV_POD_1,   !- Name
    Temperature,             !- Schedule Type Limits Name
    Through: 12/31,          !- Field 1
    For: SummerDesignDay,    !- Field 2
    Until: 24:00,24,         !- Field 3
    For: WinterDesignDay,    !- Field 5
    Until: 24:00,26.7,       !- Field 6
    For: Weekdays,           !- Field 8
    Until: 06:00,26.7,       !- Field 9
    Until: 07:00,24.0,       !- Field 11
    Until: 08:00,24.0,       !- Field 13
    Until: 21:00,24.0,       !- Field 15
    Until: 24:00,26.7,       !- Field 17
    For: WeekEnds Holidays AllOtherDays, !- Field 19
    Until: 24:00,26.7;       !- Field 20



  Schedule:Compact,
    CLGSETP_SCH_VAV_POD_2,   !- Name
    Temperature,             !- Schedule Type Limits Name
    Through: 12/31,          !- Field 1
    For: SummerDesignDay,    !- Field 2
    Until: 24:00,24,         !- Field 3
    For: WinterDesignDay,    !- Field 5
    Until: 24:00,26.7,       !- Field 6
    For: Weekdays,           !- Field 8
    Until: 06:00,26.7,       !- Field 9
    Until: 07:00,24.0,       !- Field 11
    Until: 08:00,24.0,       !- Field 13
    Until: 21:00,24.0,       !- Field 15
    Until: 24:00,26.7,       !- Field 17
    For: WeekEnds Holidays AllOtherDays, !- Field 19
    Until: 24:00,26.7;       !- Field 20



  Schedule:Compact,
    CLGSETP_SCH_VAV_POD_3,   !- Name
    Temperature,             !- Schedule Type Limits Name
    Through: 12/31,          !- Field 1
    For: SummerDesignDay,    !- Field 2
    Until: 24:00,24,         !- Field 3
    For: WinterDesignDay,    !- Field 5
    Until: 24:00,26.7,       !- Field 6
    For: Weekdays,           !- Field 8
    Until: 06:00,26.7,       !- Field 9
    Until: 07:00,24.0,       !- Field 11
    Until: 08:00,24.0,       !- Field 13
    Until: 21:00,24.0,       !- Field 15
    Until: 24:00,26.7,       !- Field 17
    For: WeekEnds Holidays AllOtherDays, !- Field 19
    Until: 24:00,26.7;       !- Field 20



  Schedule:Compact,
    CLGSETP_SCH_VAV_OTHER,   !- Name
    Temperature,             !- Schedule Type Limits Name
    Through: 12/31,          !- Field 1
    For: SummerDesignDay,    !- Field 2
    Until: 24:00,24,         !- Field 3
    For: WinterDesignDay,    !- Field 5
    Until: 24:00,26.7,       !- Field 6
    For: Weekdays,           !- Field 8
    Until: 06:00,26.7,       !- Field 9
    Until: 07:00,24.0,       !- Field 11
    Until: 08:00,24.0,       !- Field 13
    Until: 21:00,24.0,       !- Field 15
    Until: 24:00,26.7,       !- Field 17
    For: WeekEnds Holidays AllOtherDays, !- Field 19
    Until: 24:00,26.7;       !- Field 20

  Schedule:Compact,
    CLGSETP_SCH_NO_SETBACK,  !- Name
    Temperature,             !- Schedule Type Limits Name
    Through: 12/31,          !- Field 1
    For: SummerDesignDay,    !- Field 2
    Until: 24:00,24,         !- Field 3
    For: WinterDesignDay,    !- Field 5
    Until: 24:00,26.7,       !- Field 6
    For: Weekdays,           !- Field 8
    Until: 06:00,24.0,       !- Field 9
    Until: 07:00,24.0,       !- Field 11
    Until: 08:00,24.0,       !- Field 13
    Until: 21:00,24.0,       !- Field 15
    Until: 24:00,24.0,       !- Field 17
    For: WeekEnds Holidays AllOtherDays, !- Field 19
    Until: 24:00,24.0;       !- Field 20

  Schedule:Compact,
    CLGSETP_SCH_Setup,       !- Name
    Temperature,             !- Schedule Type Limits Name
    Through: 12/31,          !- Field 1
    For: SummerDesignDay,    !- Field 2
    Until: 24:00,24,         !- Field 3
    For: WinterDesignDay,    !- Field 5
    Until: 24:00,26.7,       !- Field 6
    For: Weekdays,           !- Field 8
    Until: 24:00,26.7,       !- Field 9
    For: WeekEnds Holidays AllOtherDays, !- Field 11
    Until: 09:00,26.7,       !- Field 12
    Until: 19:00,26.7,       !- Field 14
    Until: 24:00,26.7;       !- Field 16



  Schedule:Compact,
    MinOA_Sched,             !- Name
    fraction,                !- Schedule Type Limits Name
    Through: 12/31,          !- Field 1
    For: AllDays,            !- Field 2
    Until: 24:00,1.0;        !- Field 3



  Schedule:Compact,
    MinOA_MotorizedDamper_Sched,  !- Name
    On/Off,                  !- Schedule Type Limits Name
    Through: 12/31,          !- Field 1
    For: Weekdays SummerDesignDay WinterDesignDay, !- Field 2
    Until: 08:00,0,          !- Field 3
    Until: 21:00,1,          !- Field 5
    Until: 24:00,0,          !- Field 7
    For: WeekEnds Holidays AllOtherDays, !- Field 9
    Until: 24:00,0;          !- Field 10



  Schedule:Compact,
    MinOA_Kitchen_Sched,     !- Name
    On/Off,                  !- Schedule Type Limits Name
    Through: 12/31,          !- Field 1
    For: Weekdays SummerDesignDay WinterDesignDay, !- Field 2
    Until: 07:00,0,          !- Field 3
    Until: 17:00,1,          !- Field 5
    Until: 24:00,0,          !- Field 7
    For: WeekEnds Holidays AllOtherDays, !- Field 9
    Until: 24:00,0;          !- Field 10



  Schedule:Compact,
    ACTIVITY_SCH,            !- Name
    Any Number,              !- Schedule Type Limits Name
    Through: 12/31,          !- Field 1
    For: AllDays,            !- Field 2
    Until: 24:00,120;        !- Field 3

  Schedule:Compact,
    Bath_ZN_1_FLR_1 SHW_default Latent fract sched,  !- Name
    Fraction,                !- Schedule Type Limits Name
    Through: 12/31,          !- Field 1
    For: AllDays,            !- Field 2
    Until: 24:00,0.05;       !- Field 3

  Schedule:Compact,
    Bath_ZN_1_FLR_1 SHW_default Sensible fract sched,  !- Name
    Fraction,                !- Schedule Type Limits Name
    Through: 12/31,          !- Field 1
    For: AllDays,            !- Field 2
    Until: 24:00,0.2;        !- Field 3



  Schedule:Compact,
    Bath_ZN_1_FLR_1 SHW_default Temp Sched,  !- Name
    Temperature,             !- Schedule Type Limits Name
    Through: 12/31,          !- Field 1
    For: AllDays,            !- Field 2
    Until: 24:00,60;         !- Field 3

  Schedule:Compact,
    Bath_ZN_1_FLR_1 SHW_default Hot Supply Temp Sched,  !- Name
    Temperature,             !- Schedule Type Limits Name
    Through: 12/31,          !- Field 1
    For: AllDays,            !- Field 2
    Until: 24:00,55;         !- Field 3

  Schedule:Compact,
    Kitchen_ZN_1_FLR_1 SHW_default Latent fract sched,  !- Name
    Fraction,                !- Schedule Type Limits Name
    Through: 12/31,          !- Field 1
    For: AllDays,            !- Field 2
    Until: 24:00,0.05;       !- Field 3

  Schedule:Compact,
    Kitchen_ZN_1_FLR_1 SHW_default Sensible fract sched,  !- Name
    Fraction,                !- Schedule Type Limits Name
    Through: 12/31,          !- Field 1
    For: AllDays,            !- Field 2
    Until: 24:00,0.2;        !- Field 3



  Schedule:Compact,
    Kitchen_ZN_1_FLR_1 SHW_default Temp Sched,  !- Name
    Temperature,             !- Schedule Type Limits Name
    Through: 12/31,          !- Field 1
    For: AllDays,            !- Field 2
    Until: 24:00,60;         !- Field 3

  Schedule:Compact,
    Kitchen_ZN_1_FLR_1 SHW_default Hot Supply Temp Sched,  !- Name
    Temperature,             !- Schedule Type Limits Name
    Through: 12/31,          !- Field 1
    For: AllDays,            !- Field 2
    Until: 24:00,55;         !- Field 3

  Schedule:Compact,
    Kitchen_ZN_1_FLR_1_Case:1_WALKINFREEZER_CaseDefrost2aDaySched,  !- Name
    ON/OFF,                  !- Schedule Type Limits Name
    Through: 12/31,          !- Field 1
    For:AllDays,             !- Field 2
    Interpolate:Average,         !- Field 3
    Until: 11:00,0,          !- Field 4
    Until: 11:20,1,          !- Field 6
    Until: 23:00,0,          !- Field 8
    Until: 23:20,1,          !- Field 10
    Until: 24:00,0;          !- Field 12

  Schedule:Compact,
    Kitchen_ZN_1_FLR_1_Case:1_WALKINFREEZER_CaseDripDown2aDaySched,  !- Name
    ON/OFF,                  !- Schedule Type Limits Name
    Through: 12/31,          !- Field 1
    For:AllDays,             !- Field 2
    Interpolate:Average,         !- Field 3
    Until: 11:00,0,          !- Field 4
    Until: 11:30,1,          !- Field 6
    Until: 23:00,0,          !- Field 8
    Until: 23:30,1,          !- Field 10
    Until: 24:00,0;          !- Field 12

  Schedule:Compact,
    Kitchen_ZN_1_FLR_1_Case:1_WALKINFREEZER_WalkInStockingSched,  !- Name
    Any Number,              !- Schedule Type Limits Name
    Through: 12/31,          !- Field 1
    For: Tuesday Friday,     !- Field 2
    Until: 4:00,0.0,         !- Field 3
    Until: 5:00,725.0,       !- Field 5
    Until: 6:00,417.0,       !- Field 7
    Until: 7:00,290.0,       !- Field 9
    Until: 24:00,0.0,        !- Field 11
    For: AllOtherDays,       !- Field 13
    Until: 4:00,0.0,         !- Field 14
    Until: 5:00,125.0,       !- Field 16
    Until: 6:00,117.0,       !- Field 18
    Until: 7:00,90.0,        !- Field 20
    Until: 19:00,0.0,        !- Field 22
    Until: 20:00,125.0,      !- Field 24
    Until: 21:00,117.0,      !- Field 26
    Until: 22:00,90.0,       !- Field 28
    Until: 24:00,0.0;        !- Field 30

  Schedule:Compact,
    Kitchen_ZN_1_FLR_1_Case:1_WALKINFREEZER_CaseCreditReduxSched,  !- Name
    Fraction,                !- Schedule Type Limits Name
    Through: 12/31,          !- Field 1
    For:AllDays,             !- Field 2
    Interpolate:No,          !- Field 3
    Until: 7:00,0.2,         !- Field 4
    Until: 21:00,0.4,        !- Field 6
    Until: 24:00,0.2;        !- Field 8

  Schedule:Compact,
    Kitchen_ZN_1_FLR_1_Case:2_SELFCONTAINEDDISPLAYCASE_CaseStockingSched,  !- Name
    Any Number,              !- Schedule Type Limits Name
    Through: 12/31,          !- Field 1
    For:AllDays,             !- Field 2
    Until: 6:00,0.0,         !- Field 3
    Until: 7:00,50.0,        !- Field 5
    Until: 9:00,70.0,        !- Field 7
    Until: 10:00,80.0,       !- Field 9
    Until: 11:00,70.0,       !- Field 11
    Until: 13:00,50.0,       !- Field 13
    Until: 14:00,80.0,       !- Field 15
    Until: 15:00,90.0,       !- Field 17
    Until: 16:00,80.0,       !- Field 19
    Until: 24:00,0.0;        !- Field 21



  Schedule:Compact,
    SHWSys1-Loop-Temp-Schedule,  !- Name
    Temperature,             !- Schedule Type Limits Name
    Through: 12/31,          !- Field 1
    For: AllDays,            !- Field 2
    Until: 24:00,60.0;       !- Field 3



  Schedule:Compact,
    SHWSys1 Water Heater Setpoint Temperature Schedule Name,  !- Name
    Temperature,             !- Schedule Type Limits Name
    Through: 12/31,          !- Field 1
    For: AllDays,            !- Field 2
    Until: 24:00,60.0;       !- Field 3

  Schedule:Compact,
    SHWSys1 Water Heater Ambient Temperature Schedule Name,  !- Name
    Temperature,             !- Schedule Type Limits Name
    Through: 12/31,          !- Field 1
    For: AllDays,            !- Field 2
    Until: 24:00,22.0;       !- Field 3



  Schedule:Compact,
    Offices_ZN_1_FLR_1_MDP_Sch,   !-Name
    Fraction,   !-Schedule Type Limits Name
    Through: 6/30,
    For: Weekdays,
    Until: 01:00,     0.3,
    Until: 02:00,     0.3,
    Until: 03:00,     0.3,
    Until: 04:00,     0.3,
    Until: 05:00,     0.3,
    Until: 06:00,     0.3,
    Until: 07:00,     0.3,
    Until: 08:00,     0.3,
    Until: 09:00,     0.3,
    Until: 10:00,     0.3,
    Until: 11:00,     0.3,
    Until: 12:00,     0.3,
    Until: 13:00, 0,
    Until: 14:00,     0.3,
    Until: 15:00, 0,
    Until: 16:00,     0.3,
    Until: 17:00,     0.3,
    Until: 18:00,     0.3,
    Until: 19:00,     0.3,
    Until: 20:00,     0.3,
    Until: 21:00,     0.3,
    Until: 22:00,     0.3,
    Until: 23:00,     0.3,
    Until: 24:00,     0.3,
    For: AllOtherDays,
    Until: 24:00,
        0.3,
    Through: 9/1,
    For: Weekdays,
    Until: 01:00,     0.3,
    Until: 02:00,     0.3,
    Until: 03:00,     0.3,
    Until: 04:00,     0.3,
    Until: 05:00,     0.3,
    Until: 06:00,     0.3,
    Until: 07:00,     0.3,
    Until: 08:00,     0.3,
    Until: 09:00,     0.3,
    Until: 10:00,     0.3,
    Until: 11:00,     0.3,
    Until: 12:00, 0,
    Until: 13:00,     0.3,
    Until: 14:00,     0.3,
    Until: 15:00, 0,
    Until: 16:00,     0.3,
    Until: 17:00,     0.3,
    Until: 18:00,     0.3,
    Until: 19:00,     0.3,
    Until: 20:00,     0.3,
    Until: 21:00,     0.3,
    Until: 22:00,     0.3,
    Until: 23:00,     0.3,
    Until: 24:00,     0.3,
    For: AllOtherDays,
    Until: 24:00,
        0.3,
    Through: 12/31,
    For: Weekdays,
    Until: 01:00,     0.3,
    Until: 02:00,     0.3,
    Until: 03:00,     0.3,
    Until: 04:00,     0.3,
    Until: 05:00,     0.3,
    Until: 06:00,     0.3,
    Until: 07:00,     0.3,
    Until: 08:00,     0.3,
    Until: 09:00,     0.3,
    Until: 10:00,     0.3,
    Until: 11:00,     0.3,
    Until: 12:00,     0.3,
    Until: 13:00, 0,
    Until: 14:00,     0.3,
    Until: 15:00, 0,
    Until: 16:00,     0.3,
    Until: 17:00,     0.3,
    Until: 18:00,     0.3,
    Until: 19:00,     0.3,
    Until: 20:00,     0.3,
    Until: 21:00,     0.3,
    Until: 22:00,     0.3,
    Until: 23:00,     0.3,
    Until: 24:00,     0.3,
    For: AllOtherDays,
    Until: 24:00,
       0.3 ;
       
       Schedule:Compact,
    OutdoorAirAvailSched,    !- Name
    Fraction,                !- Schedule Type Limits Name
    Through: 3/31,           !- Field 1
    For: AllDays,            !- Field 2
    Until: 24:00,            !- Field 3
    1.0,                     !- Field 4
    Through: 9/30,           !- Field 5
    For: WeekDays,           !- Field 6
    Until: 7:00,             !- Field 7
    0.0,                     !- Field 8
    Until: 17:00,            !- Field 9
    1.0,                     !- Field 10
    Until: 24:00,            !- Field 11
    0.0,                     !- Field 12
    For: SummerDesignDay WinterDesignDay,  !- Field 13
    Until: 24:00,            !- Field 14
    0.0,                     !- Field 15
    For: AllOtherDays,       !- Field 16
    Until: 24:00,            !- Field 17
    0.0,                     !- Field 18
    Through: 12/31,          !- Field 19
    For: AllDays,            !- Field 20
    Until: 24:00,            !- Field 21
    1.0;                     !- Field 22
   


{% include "MinOAFraction" %}

{% include "HVACOperationSchd" %}

{% include "HTGSETP_SCH_NO_OPTIMUM" %}

{% include "CLGSETP_SCH_NO_OPTIMUM" %}
!
!-   ===========  ALL OBJECTS IN CLASS: MATERIAL:REGULAR ===========
 
{% include "wall_roof" %} 
 
  Material,
    Std Wood 6inch,          !- Name
    MediumSmooth,            !- Roughness
    0.15,                    !- Thickness {m}
    0.12,                    !- Conductivity {W/m-K}
    540.0000,                !- Density {kg/m3}
    1210,                    !- Specific Heat {J/kg-K}
    0.9000000,               !- Thermal Absorptance
    0.7000000,               !- Solar Absorptance
    0.7000000;               !- Visible Absorptance
 
  Material,
    AC02 Acoustic Ceiling,   !- Name
    MediumSmooth,            !- Roughness
    1.2700000E-02,           !- Thickness {m}
    5.7000000E-02,           !- Conductivity {W/m-K}
    288.0000,                !- Density {kg/m3}
    1339.000,                !- Specific Heat {J/kg-K}
    0.9000000,               !- Thermal Absorptance
    0.7000000,               !- Solar Absorptance
    0.2000000;               !- Visible Absorptance
 
  Material,
    F07 25mm stucco,         !- Name
    Smooth,                  !- Roughness
    0.0254,                  !- Thickness {m}
    0.72,                    !- Conductivity {W/m-K}
    1856,                    !- Density {kg/m3}
    840,                     !- Specific Heat {J/kg-K}
    0.9,                     !- Thermal Absorptance
    0.7,                     !- Solar Absorptance
    0.7;                     !- Visible Absorptance
 
  Material,
    F08 Metal surface,       !- Name
    Smooth,                  !- Roughness
    0.0008,                  !- Thickness {m}
    45.28,                   !- Conductivity {W/m-K}
    7824,                    !- Density {kg/m3}
    500;                     !- Specific Heat {J/kg-K}

  Material,
    F08 Metal roof surface,       !- Name
    Smooth,                  !- Roughness
    0.0008,                  !- Thickness {m}
    45.28,                   !- Conductivity {W/m-K}
    7824,                    !- Density {kg/m3}
    500,                     !- Specific Heat {J/kg-K}
    0.9,                     !- Absorptance:Thermal
    0.7;                     !- Absorptance:Solar
    
  Material,
    F12 Asphalt shingles,    !- Name
    VeryRough,               !- Roughness
    0.0032,                  !- Thickness {m}
    0.04,                    !- Conductivity {W/m-K}
    1120,                    !- Density {kg/m3}
    1260,                    !- Specific Heat {J/kg-K}
    0.9,                     !- Absorptance:Thermal
[...]
    0.401147E-01,            !- Coefficient2 x
    0.226411E-03,            !- Coefficient3 x**2
    -0.827136E-03,           !- Coefficient4 y
    -0.732240E-05,           !- Coefficient5 y**2
    -0.446278E-03,           !- Coefficient6 x*y
    12.77778,                !- Minimum Value of x
    23.88889,                !- Maximum Value of x
    23.88889,                !- Minimum Value of y
    46.11111,                !- Maximum Value of y
    ,                        !- Minimum Curve Output
    ,                        !- Maximum Curve Output
    Temperature,             !- Input Unit Type for X
    Temperature,             !- Input Unit Type for Y
    Dimensionless;           !- Output Unit Type

Curve:Biquadratic,
    HPACCoolCapFT Speed 2,   !- Name
    0.476428E+00,            !- Coefficient1 Constant
    0.401147E-01,            !- Coefficient2 x
    0.226411E-03,            !- Coefficient3 x**2
    -0.827136E-03,           !- Coefficient4 y
    -0.732240E-05,           !- Coefficient5 y**2
    -0.446278E-03,           !- Coefficient6 x*y
    12.77778,                !- Minimum Value of x
    23.88889,                !- Maximum Value of x
    23.88889,                !- Minimum Value of y
    46.11111,                !- Maximum Value of y
    ,                        !- Minimum Curve Output
    ,                        !- Maximum Curve Output
    Temperature,             !- Input Unit Type for X
    Temperature,             !- Input Unit Type for Y
    Dimensionless;           !- Output Unit Type

Curve:Biquadratic,
    HPACCoolCapFT Speed 3,   !- Name
    0.476428E+00,            !- Coefficient1 Constant
    0.401147E-01,            !- Coefficient2 x
    0.226411E-03,            !- Coefficient3 x**2
    -0.827136E-03,           !- Coefficient4 y
    -0.732240E-05,           !- Coefficient5 y**2
    -0.446278E-03,           !- Coefficient6 x*y
    12.77778,                !- Minimum Value of x
    23.88889,                !- Maximum Value of x
    23.88889,                !- Minimum Value of y
    46.11111,                !- Maximum Value of y
    ,                        !- Minimum Curve Output
    ,                        !- Maximum Curve Output
    Temperature,             !- Input Unit Type for X
    Temperature,             !- Input Unit Type for Y
    Dimensionless;           !- Output Unit Type

Curve:Biquadratic,
    HPACCoolCapFT Speed 4,   !- Name
    0.476428E+00,            !- Coefficient1 Constant
    0.401147E-01,            !- Coefficient2 x
    0.226411E-03,            !- Coefficient3 x**2
    -0.827136E-03,           !- Coefficient4 y
    -0.732240E-05,           !- Coefficient5 y**2
    -0.446278E-03,           !- Coefficient6 x*y
    12.77778,                !- Minimum Value of x
    23.88889,                !- Maximum Value of x
    23.88889,                !- Minimum Value of y
    46.11111,                !- Maximum Value of y
    ,                        !- Minimum Curve Output
    ,                        !- Maximum Curve Output
    Temperature,             !- Input Unit Type for X
    Temperature,             !- Input Unit Type for Y
    Dimensionless;           !- Output Unit Type




! operation condition varies
Curve:Biquadratic,
    HAPCCoolWHFT Speed 1,    !- Name
    1.0,                     !- Coefficient1 Constant
    0.0,                     !- Coefficient2 x
    0.0,                     !- Coefficient3 x**2
    0.0,                     !- Coefficient4 y
    0.0,                     !- Coefficient5 y**2
    0.0,                     !- Coefficient6 x*y
    0,                       !- Minimum Value of x
    50,                      !- Maximum Value of x
    0,                       !- Minimum Value of y
    50,                      !- Maximum Value of y
    ,                        !- Minimum Curve Output
    ,                        !- Maximum Curve Output
    Temperature,             !- Input Unit Type for X
    Temperature,             !- Input Unit Type for Y
    Dimensionless;           !- Output Unit Type

! operation condition varies
Curve:Biquadratic,
    HAPCCoolWHFT Speed 2,    !- Name
    1.0,                     !- Coefficient1 Constant
    0.0,                     !- Coefficient2 x
    0.0,                     !- Coefficient3 x**2
    0.0,                     !- Coefficient4 y
    0.0,                     !- Coefficient5 y**2
    0.0,                     !- Coefficient6 x*y
    0,                       !- Minimum Value of x
    50,                      !- Maximum Value of x
    0,                       !- Minimum Value of y
    50,                      !- Maximum Value of y
    ,                        !- Minimum Curve Output
    ,                        !- Maximum Curve Output
    Temperature,             !- Input Unit Type for X
    Temperature,             !- Input Unit Type for Y
    Dimensionless;           !- Output Unit Type

! operation condition varies
Curve:Biquadratic,
    HAPCCoolWHFT Speed 3,    !- Name
    1.0,                     !- Coefficient1 Constant
    0.0,                     !- Coefficient2 x
    0.0,                     !- Coefficient3 x**2
    0.0,                     !- Coefficient4 y
    0.0,                     !- Coefficient5 y**2
    0.0,                     !- Coefficient6 x*y
    0,                       !- Minimum Value of x
    50,                      !- Maximum Value of x
    0,                       !- Minimum Value of y
    50,                      !- Maximum Value of y
    ,                        !- Minimum Curve Output
    ,                        !- Maximum Curve Output
    Temperature,             !- Input Unit Type for X
    Temperature,             !- Input Unit Type for Y
    Dimensionless;           !- Output Unit Type

! operation condition varies
Curve:Biquadratic,
    HAPCCoolWHFT Speed 4,    !- Name
    1.0,                     !- Coefficient1 Constant
    0.0,                     !- Coefficient2 x
    0.0,                     !- Coefficient3 x**2
    0.0,                     !- Coefficient4 y
    0.0,                     !- Coefficient5 y**2
    0.0,                     !- Coefficient6 x*y
    0,                       !- Minimum Value of x
    50,                      !- Maximum Value of x
    0,                       !- Minimum Value of y
    50,                      !- Maximum Value of y
    ,                        !- Minimum Curve Output
    ,                        !- Maximum Curve Output
    Temperature,             !- Input Unit Type for X
    Temperature,             !- Input Unit Type for Y
    Dimensionless;           !- Output Unit Type


!-   ===========  ALL OBJECTS IN CLASS: OUTPUT:VARIABLEDICTIONARY ===========

Output:VariableDictionary,
    regular,                 !- Key Field
    Name;                    !- Sort Option


!-   ===========  ALL OBJECTS IN CLASS: OUTPUT:TABLE:SUMMARYREPORTS ===========

!  Output:Variable,*,Site Outdoor Air Drybulb Temperature,Hourly;
!  Output:Variable,*,Site Outdoor Air Wetbulb Temperature,Hourly;
!  Output:Variable,HVACOperationSchd,Schedule Value,Hourly;
!
!  ! Outdoor Air Flow
!
!  Output:Variable,PSZ-AC:1_OAInlet Node,System Node VolFlowRate,Hourly;
!  Output:Variable,PSZ-AC:2_OAInlet Node,System Node VolFlowRate,Hourly;
!  Output:Variable,PSZ-AC:3_OAInlet Node,System Node VolFlowRate,Hourly;
!  Output:Variable,PSZ-AC:4_OAInlet Node,System Node VolFlowRate,Hourly;
!  Output:Variable,PSZ-AC:5_OAInlet Node,System Node VolFlowRate,Hourly;
!
!  ! Return Air Flow
!
!  Output:Variable,PSZ-AC:1 Supply Equipment Inlet Node,System Node VolFlowRate,Hourly;
!  Output:Variable,PSZ-AC:2 Supply Equipment Inlet Node,System Node VolFlowRate,Hourly;
!  Output:Variable,PSZ-AC:3 Supply Equipment Inlet Node,System Node VolFlowRate,Hourly;
!  Output:Variable,PSZ-AC:4 Supply Equipment Inlet Node,System Node VolFlowRate,Hourly;
!  Output:Variable,PSZ-AC:5 Supply Equipment Inlet Node,System Node VolFlowRate,Hourly;
!
!  ! Return Air Tdb
!
!  Output:Variable,PSZ-AC:1 Supply Equipment Inlet Node,System Node Temperature,Hourly;
!  Output:Variable,PSZ-AC:2 Supply Equipment Inlet Node,System Node Temperature,Hourly;
!  Output:Variable,PSZ-AC:3 Supply Equipment Inlet Node,System Node Temperature,Hourly;
!  Output:Variable,PSZ-AC:4 Supply Equipment Inlet Node,System Node Temperature,Hourly;
!  Output:Variable,PSZ-AC:5 Supply Equipment Inlet Node,System Node Temperature,Hourly;
!
!  ! Return Air Twb
!
!  Output:Variable,PSZ-AC:1 Supply Equipment Inlet Node,System Node Wetbulb Temperature,Hourly;
!  Output:Variable,PSZ-AC:2 Supply Equipment Inlet Node,System Node Wetbulb Temperature,Hourly;
!  Output:Variable,PSZ-AC:3 Supply Equipment Inlet Node,System Node Wetbulb Temperature,Hourly;
!  Output:Variable,PSZ-AC:4 Supply Equipment Inlet Node,System Node Wetbulb Temperature,Hourly;
!  Output:Variable,PSZ-AC:5 Supply Equipment Inlet Node,System Node Wetbulb Temperature,Hourly;
!
!  ! supply Air Flow
!
!  Output:Variable,PSZ-AC:1 Supply Equipment Outlet Node,System Node VolFlowRate,Hourly;
!  Output:Variable,PSZ-AC:2 Supply Equipment Outlet Node,System Node VolFlowRate,Hourly;
!  Output:Variable,PSZ-AC:3 Supply Equipment Outlet Node,System Node VolFlowRate,Hourly;
!  Output:Variable,PSZ-AC:4 Supply Equipment Outlet Node,System Node VolFlowRate,Hourly;
!  Output:Variable,PSZ-AC:5 Supply Equipment Outlet Node,System Node VolFlowRate,Hourly;
!
!  ! supply Air Tdb
!
!  Output:Variable,PSZ-AC:1 Supply Equipment Outlet Node,System Node Temperature,Hourly;
!  Output:Variable,PSZ-AC:2 Supply Equipment Outlet Node,System Node Temperature,Hourly;
!  Output:Variable,PSZ-AC:3 Supply Equipment Outlet Node,System Node Temperature,Hourly;
!  Output:Variable,PSZ-AC:4 Supply Equipment Outlet Node,System Node Temperature,Hourly;
!  Output:Variable,PSZ-AC:5 Supply Equipment Outlet Node,System Node Temperature,Hourly;
!
!  ! supply Air Twb
!
!  Output:Variable,PSZ-AC:1 Supply Equipment Outlet Node,System Node Wetbulb Temperature,Hourly;
!  Output:Variable,PSZ-AC:2 Supply Equipment Outlet Node,System Node Wetbulb Temperature,Hourly;
!  Output:Variable,PSZ-AC:3 Supply Equipment Outlet Node,System Node Wetbulb Temperature,Hourly;
!  Output:Variable,PSZ-AC:4 Supply Equipment Outlet Node,System Node Wetbulb Temperature,Hourly;
!  Output:Variable,PSZ-AC:5 Supply Equipment Outlet Node,System Node Wetbulb Temperature,Hourly;
!
!  ! Coil Load
!
!  Output:Variable,*,Air System Cooling Coil Total Cooling Energy,Hourly;
!  Output:Variable,*,Air System Heating Coil Total Heating Energy,Hourly;
!
!  ! SHW
!
!  Output:Variable,*,Water Heater Heating Rate,Hourly;
!
!  ! Fan and Pump
!
!  Output:Variable,*,Fan Electric Power,hourly; !- HVAC Average W
!  Output:Variable,*,Pump Electric Power,hourly; !- HVAC Average W
!  Output:Variable,*,Humidifier Electric Power,hourly; !- HVAC Average W
!
!  ! Utility and Submeter
!
!    Output:Meter,Electricity:Facility,Hourly;
!    Output:Meter,Gas:Facility,Hourly;
!    Output:Meter,InteriorLights:Electricity,Hourly;
!    Output:Meter,ExteriorLights:Electricity,Hourly;
!    Output:Meter,InteriorEquipment:Electricity,Hourly;
!    Output:Meter,ExteriorEquipment:Electricity,Hourly;
!    Output:Meter,Fans:Electricity,Hourly;
!    Output:Meter,Pumps:Electricity,Hourly;
!    Output:Meter,Heating:Electricity,Hourly;
!    Output:Meter,Cooling:Electricity,Hourly;
!    Output:Meter,HeatRejection:Electricity,Hourly;
!    Output:Meter,Humidifier:Electricity,Hourly;
!    Output:Meter,HeatRecovery:Electricity,Hourly;
!    Output:Meter,DHW:Electricity,Hourly;
!    Output:Meter,Cogeneration:Electricity,Hourly;
!    Output:Meter,Refrigeration:Electricity,Hourly;
!    Output:Meter,WaterSystems:Electricity,Hourly;
!
!    Output:Meter,InteriorLights:Gas,Hourly;
!    Output:Meter,ExteriorLights:Gas,Hourly;
!    Output:Meter,InteriorEquipment:Gas,Hourly;
!    Output:Meter,ExteriorEquipment:Gas,Hourly;
!    Output:Meter,Fans:Gas,Hourly;
!    Output:Meter,Pumps:Gas,Hourly;
!    Output:Meter,Heating:Gas,Hourly;
!    Output:Meter,Cooling:Gas,Hourly;
!    Output:Meter,HeatRejection:Gas,Hourly;
!    Output:Meter,Humidifier:Gas,Hourly;
!    Output:Meter,HeatRecovery:Gas,Hourly;
!    Output:Meter,DHW:Gas,Hourly;
!    Output:Meter,Cogeneration:Gas,Hourly;
!    Output:Meter,Refrigeration:Gas,Hourly;
!    Output:Meter,WaterSystems:Gas,Hourly;
Output:Table:SummaryReports,
    AllSummaryAndMonthly;    !- Report 1 Name


!-   ===========  ALL OBJECTS IN CLASS: OUTPUT:TABLE:MONTHLY ===========

Output:Table:Monthly,
    NameHolderMonthlySummary TaskPurpose ProgressIndicator,  !- Name
    3,                       !- Digits After Decimal
    Site Outdoor Air Drybulb,!- Variable or Meter 1 Name
    SumOrAverage,            !- Aggregation Type for Variable or Meter 1
    Heating:Gas,             !- Variable or Meter 2 Name
    SumOrAverage;            !- Aggregation Type for Variable or Meter 2

Output:Table:Monthly,
    NameHolderMonthlySummary CodeName ASHRAE901,  !- Name
    3,                       !- Digits After Decimal
    Site Outdoor Air Drybulb,!- Variable or Meter 1 Name
    SumOrAverage,            !- Aggregation Type for Variable or Meter 1
    Heating:Gas,             !- Variable or Meter 2 Name
    SumOrAverage;            !- Aggregation Type for Variable or Meter 2

Output:Table:Monthly,
    NameHolderMonthlySummary CodeYear 2019,  !- Name
    3,                       !- Digits After Decimal
    Site Outdoor Air Drybulb,!- Variable or Meter 1 Name
    SumOrAverage,            !- Aggregation Type for Variable or Meter 1
    Heating:Gas,             !- Variable or Meter 2 Name
    SumOrAverage;            !- Aggregation Type for Variable or Meter 2

Output:Table:Monthly,
    NameHolderMonthlySummary CodeAmendment NoneAmend,  !- Name
    3,                       !- Digits After Decimal
    Site Outdoor Air Drybulb,!- Variable or Meter 1 Name
    SumOrAverage,            !- Aggregation Type for Variable or Meter 1
    Heating:Gas,             !- Variable or Meter 2 Name
    SumOrAverage;            !- Aggregation Type for Variable or Meter 2

Output:Table:Monthly,
    NameHolderMonthlySummary PrototypeName OfficeSmall,  !- Name
    3,                       !- Digits After Decimal
    Site Outdoor Air Drybulb,!- Variable or Meter 1 Name
    SumOrAverage,            !- Aggregation Type for Variable or Meter 1
    Heating:Gas,             !- Variable or Meter 2 Name
    SumOrAverage;            !- Aggregation Type for Variable or Meter 2

Output:Table:Monthly,
    NameHolderMonthlySummary TaskScope National,  !- Name
    3,                       !- Digits After Decimal
    Site Outdoor Air Drybulb,!- Variable or Meter 1 Name
    SumOrAverage,            !- Aggregation Type for Variable or Meter 1
    Heating:Gas,             !- Variable or Meter 2 Name
    SumOrAverage;            !- Aggregation Type for Variable or Meter 2

Output:Table:Monthly,
    NameHolderMonthlySummary State National,  !- Name
    3,                       !- Digits After Decimal
    Site Outdoor Air Drybulb,!- Variable or Meter 1 Name
    SumOrAverage,            !- Aggregation Type for Variable or Meter 1
    Heating:Gas,             !- Variable or Meter 2 Name
    SumOrAverage;            !- Aggregation Type for Variable or Meter 2

Output:Table:Monthly,
    NameHolderMonthlySummary ClimateZone 4A,  !- Name
    3,                       !- Digits After Decimal
    Site Outdoor Air Drybulb,!- Variable or Meter 1 Name
    SumOrAverage,            !- Aggregation Type for Variable or Meter 1
    Heating:Gas,             !- Variable or Meter 2 Name
    SumOrAverage;            !- Aggregation Type for Variable or Meter 2

Output:Table:Monthly,
    NameHolderMonthlySummary RepresentCity USA_NY_NewYork,  !- Name
    3,                       !- Digits After Decimal
    Site Outdoor Air Drybulb,!- Variable or Meter 1 Name
    SumOrAverage,            !- Aggregation Type for Variable or Meter 1
    Heating:Gas,             !- Variable or Meter 2 Name
    SumOrAverage;            !- Aggregation Type for Variable or Meter 2


!-   ===========  ALL OBJECTS IN CLASS: OUTPUTCONTROL:TABLE:STYLE ===========

OutputControl:Table:Style,
    CommaAndHTML;            !- Column Separator


!-   ===========  ALL OBJECTS IN CLASS: OUTPUTCONTROL:REPORTINGTOLERANCES ===========

OutputControl:ReportingTolerances,
    0.556,                   !- Tolerance for Time Heating Setpoint Not Met {deltaC}
    0.556;                   !- Tolerance for Time Cooling Setpoint Not Met {deltaC}


!-   ===========  ALL OBJECTS IN CLASS: OUTPUT:VARIABLE ===========

Output:Variable,
    *,                       !- Key Value
    Zone Mean Air Temperature,  !- Variable Name
    Timestep;                !- Reporting Frequency

Output:Variable,
    *,                       !- Key Value
    Cooling Coil Total Cooling Rate ,  !- Variable Name
    Timestep;                !- Reporting Frequency

Output:Variable,
    *,                       !- Key Value
    Heating Coil Heating Rate ,  !- Variable Name
    Timestep;                !- Reporting Frequency

Output:Variable,
    *,                       !- Key Value
    Unitary System DX Coil Speed Level ,  !- Variable Name
    Timestep;                !- Reporting Frequency

Output:Variable,
    *,                       !- Key Value
    Unitary System Compressor Part Load Ratio ,  !- Variable Name
    Timestep;                !- Reporting Frequency

Output:Variable,
    *,                       !- Key Value
    Fan Electric Power ,     !- Variable Name
    Timestep;                !- Reporting Frequency

Output:Variable,
    *,                       !- Key Value
    Fan Air Mass Flow Rate , !- Variable Name
    Timestep;                !- Reporting Frequency

Output:Variable,
    *,                       !- Key Value
    Fan2MaxGlobal,           !- Variable Name
    Timestep;                !- Reporting Frequency

Output:Variable,
    *,                       !- Key Value
    Unitary System Total Heating Rate ,  !- Variable Name
    Timestep;                !- Reporting Frequency

Output:Variable,
    *,                       !- Key Value
    Fan1MaxGlobal,           !- Variable Name
    Timestep;                !- Reporting Frequency

Output:Variable,
    *,                       !- Key Value
    Fan3MaxGlobal,           !- Variable Name
    Timestep;                !- Reporting Frequency

Output:Variable,
    *,                       !- Key Value
    Fan4MaxGlobal,           !- Variable Name
    Timestep;                !- Reporting Frequency

Output:Variable,
    *,                       !- Key Value
    Fan5MaxGlobal,           !- Variable Name
    Timestep;                !- Reporting Frequency

Output:Variable,
    *,                       !- Key Value
    Heating Coil Electric Power ,  !- Variable Name
    Hourly;                  !- Reporting Frequency

Output:Variable,
    *,                       !- Key Value
    Heating Coil Gas Rate,   !- Variable Name
    Hourly;                  !- Reporting Frequency


!-   ===========  ALL OBJECTS IN CLASS: OUTPUT:METER:METERFILEONLY ===========

Output:Meter:MeterFileOnly,
    Electricity:Facility,    !- Key Name
    Hourly;                  !- Reporting Frequency

Output:Meter:MeterFileOnly,
    ElectricityNet:Facility, !- Key Name
    Hourly;                  !- Reporting Frequency

Output:Meter:MeterFileOnly,
    Gas:Facility,            !- Key Name
    Hourly;                  !- Reporting Frequency
    
    EnergyManagementSystem:InternalVariable,
    Fan1_DesignFlow,         !- Name
    Supply Fan 1,            !- Internal Data Index Key Name
    Fan Maximum Mass Flow Rate;  !- Internal Data Type

EnergyManagementSystem:InternalVariable,
    Fan2_DesignFlow,         !- Name
    Supply Fan 2,            !- Internal Data Index Key Name
    Fan Maximum Mass Flow Rate;  !- Internal Data Type

EnergyManagementSystem:InternalVariable,
    Fan3_DesignFlow,         !- Name
    Supply Fan 3,            !- Internal Data Index Key Name
    Fan Maximum Mass Flow Rate;  !- Internal Data Type
