Version,9.0;
!-   ===========  ALL OBJECTS IN CLASS: SIMULATIONCONTROL ===========

  SimulationControl,
    Yes,                     !- Do Zone Sizing Calculation
    Yes,                     !- Do System Sizing Calculation
    Yes,                     !- Do Plant Sizing Calculation
    No,         !- Run Simulation for Sizing Periods
    YES;                      !- Run Simulation for Weather File Run Periods

!-   ===========  ALL OBJECTS IN CLASS: BUILDING ===========

  Building,
    OfficeSmall,            !- Name
    0.0000,                  !- North Axis {deg}
    City,                    !- Terrain
    0.0400,                  !- Loads Convergence Tolerance Value
    0.2000,                  !- Temperature Convergence Tolerance Value {deltaC}
    FullInteriorAndExterior, !- Solar Distribution
    25,                      !- Maximum Number of Warmup Days
    6;                       !- Minimum Number of Warmup Days

!-   ===========  ALL OBJECTS IN CLASS: SHADOWCALCULATION ===========

  ShadowCalculation,
    AverageOverDaysInFrequency,  !- Calculation Method
    30,                      !- Calculation Frequency
    15000;                   !- Maximum Figures in Shadow Overlap Calculations

!-   ===========  ALL OBJECTS IN CLASS: SURFACECONVECTIONALGORITHM:INSIDE ===========

  SurfaceConvectionAlgorithm:Inside,TARP;

!-   ===========  ALL OBJECTS IN CLASS: SURFACECONVECTIONALGORITHM:OUTSIDE ===========

  SurfaceConvectionAlgorithm:Outside,TARP;

!-   ===========  ALL OBJECTS IN CLASS: HEATBALANCEALGORITHM ===========

  HeatBalanceAlgorithm,ConductionTransferFunction,200.0000;

!-   ===========  ALL OBJECTS IN CLASS: TIMESTEP ===========

  Timestep,6;

!-   ===========  ALL OBJECTS IN CLASS: CONVERGENCELIMITS ===========

  ConvergenceLimits,
    1,                       !- Minimum System Timestep {minutes}
    20;                      !- Maximum HVAC Iterations

!-   ===========  ALL OBJECTS IN CLASS: RUNPERIOD ===========

  RunPeriod,
    ,                        !- Name
    1,                       !- Begin Month
    1,                       !- Begin Day of Month
    ,                        !- Begin Year
    12,                      !- End Month
    31,                      !- End Day of Month
    ,                        !- End Year
    Sunday,                  !- Day of Week for Start Day
    No,                      !- Use Weather File Holidays and Special Days
    No,                      !- Use Weather File Daylight Saving Period
    No,                     !- Apply Weekend Holiday Rule
    Yes,                     !- Use Weather File Rain Indicators
    Yes;                     !- Use Weather File Snow Indicators

!-   ===========  ALL OBJECTS IN CLASS: RUNPERIODCONTROL:SPECIALDAYS ===========

  RunPeriodControl:SpecialDays,
    New Years Day,           !- Name
    January 1,               !- Start Date
    1,                       !- Duration {days}
    Holiday;                 !- Special Day Type

  RunPeriodControl:SpecialDays,
    Veterans Day,            !- Name
    November 11,             !- Start Date
    1,                       !- Duration {days}
    Holiday;                 !- Special Day Type

  RunPeriodControl:SpecialDays,
    Christmas,               !- Name
    December 25,             !- Start Date
    1,                       !- Duration {days}
    Holiday;                 !- Special Day Type

  RunPeriodControl:SpecialDays,
    Independence Day,        !- Name
    July 4,                  !- Start Date
    1,                       !- Duration {days}
    Holiday;                 !- Special Day Type

  RunPeriodControl:SpecialDays,
    MLK Day,                 !- Name
    3rd Monday in January,   !- Start Date
    1,                       !- Duration {days}
    Holiday;                 !- Special Day Type

  RunPeriodControl:SpecialDays,
    Presidents Day,          !- Name
    3rd Monday in February,  !- Start Date
    1,                       !- Duration {days}
    Holiday;                 !- Special Day Type

  RunPeriodControl:SpecialDays,
    Memorial Day,            !- Name
    Last Monday in May,      !- Start Date
    1,                       !- Duration {days}
    Holiday;                 !- Special Day Type

  RunPeriodControl:SpecialDays,
    Labor Day,               !- Name
    1st Monday in September, !- Start Date
    1,                       !- Duration {days}
    Holiday;                 !- Special Day Type

  RunPeriodControl:SpecialDays,
    Columbus Day,            !- Name
    2nd Monday in October,   !- Start Date
    1,                       !- Duration {days}
    Holiday;                 !- Special Day Type

  RunPeriodControl:SpecialDays,
    Thanksgiving,            !- Name
    4th Thursday in November,!- Start Date
    1,                       !- Duration {days}
    Holiday;                 !- Special Day Type

!-   ===========  ALL OBJECTS IN CLASS: RUNPERIODCONTROL:DAYLIGHTSAVINGTIME ===========

  RunPeriodControl:DaylightSavingTime,
    2nd Sunday in March,     !- Start Date
    1st Sunday in November;  !- End Date

!-   ===========  ALL OBJECTS IN CLASS: LOCATION ===========

{% include "climates" %}

!-   ===========  ALL OBJECTS IN CLASS: MATERIAL:REGULAR-R ===========

  Material:NoMass,
    Opaque Door panel_con,   !- Name
    MediumRough,             !- Roughness
    0.251572327,  !- Thermal Resistance {m2-K/W}
    0.9,                     !- Thermal Absorptance
    0.7,                     !- Solar Absorptance
    0.7;                     !- Visible Absorptance


!-   ===========  ALL OBJECTS IN CLASS: CONSTRUCTION ===========

  Construction,
    Swinging Door_con,       !- Name
    Opaque Door panel_con;   !- Outside Layer

!-   ===========  ALL OBJECTS IN CLASS: SCHEDULETYPELIMITS ===========

  ScheduleTypeLimits,
    Any Number;              !- Name

  ScheduleTypeLimits,
    Fraction,                !- Name
    0.0,                     !- Lower Limit Value
    1.0,                     !- Upper Limit Value
    CONTINUOUS;              !- Numeric Type

  ScheduleTypeLimits,
    Temperature,             !- Name
    -60,                     !- Lower Limit Value
    200,                     !- Upper Limit Value
    CONTINUOUS;              !- Numeric Type

  ScheduleTypeLimits,
    On/Off,                  !- Name
    0,                       !- Lower Limit Value
    1,                       !- Upper Limit Value
    DISCRETE;                !- Numeric Type

  ScheduleTypeLimits,
    Control Type,            !- Name
    0,                       !- Lower Limit Value
    4,                       !- Upper Limit Value
    DISCRETE;                !- Numeric Type

  ScheduleTypeLimits,
    Humidity,                !- Name
    10,                      !- Lower Limit Value
    90,                      !- Upper Limit Value
    CONTINUOUS;              !- Numeric Type

  ScheduleTypeLimits,
    Number;                  !- Name

!-   ===========  ALL OBJECTS IN CLASS: SCHEDULE:COMPACT ===========


  Schedule:Compact,
    BLDG_LIGHT_BATH_SCH,     !- Name
    Fraction,                !- Schedule Type Limits Name
    Through: 6/30,           !- Field 1
    For: Weekdays,           !- Field 2
    Until: 7:00,0.1773,      !- Field 3
        Until: 21:00,0.9,               !- Field 4
        Until: 24:00,0.1773,               !- Field 5
        For: SummerDesignDay,
        Until: 24:00, 1,
        For: WinterDesignDay,
        Until: 24:00, 0,
        For: WeekEnds Holidays AllOtherDays,               !- Field 6
        Until: 24:00,0.1773,               !- Field 7
        Through: 9/1,                  !- Field 8
        For: Weekdays,               !- Field 9
        Until: 8:00,0.1773,               !- Field 10
        Until: 20:00,0.5,               !- Field 11
        Until: 24:00,0.1773,               !- Field 12
        For: SummerDesignDay,
        Until: 24:00, 1,
        For: WinterDesignDay,
        Until: 24:00, 0,
        For: WeekEnds Holidays AllOtherDays,               !- Field 13
        Until: 24:00,0.1773,               !- Field 14
        Through: 12/31,                  !- Field 15
        For: Weekdays,               !- Field 16
        Until: 7:00,0.1773,               !- Field 17
        Until: 21:00,0.9,               !- Field 18
        Until: 24:00,0.1773,               !- Field 19
        For: SummerDesignDay,
        Until: 24:00, 1,
        For: WinterDesignDay,
        Until: 24:00, 0,
        For: WeekEnds Holidays AllOtherDays,               !- Field 20
        Until: 24:00,0.1773;               !- Field 21

  Schedule:Compact,
    BLDG_LIGHT_CLASSROOM_SCH,!- Name
    Fraction,                !- Schedule Type Limits Name
    Through: 6/30,           !- Field 1
    For: Weekdays,           !- Field 2
    Until: 7:00,0.1773,      !- Field 3
        Until: 21:00,0.9,               !- Field 4
        Until: 24:00,0.1773,               !- Field 5
        For: SummerDesignDay,
        Until: 24:00, 1,
        For: WinterDesignDay,
        Until: 24:00, 0,
        For: WeekEnds Holidays AllOtherDays,               !- Field 6
        Until: 24:00,0.1773,               !- Field 7
        Through: 9/1,                  !- Field 8
        For: Weekdays,               !- Field 9
        Until: 8:00,0.1773,               !- Field 10
        Until: 20:00,0.5,               !- Field 11
        Until: 24:00,0.1773,               !- Field 12
        For: SummerDesignDay,
        Until: 24:00, 1,
        For: WinterDesignDay,
        Until: 24:00, 0,
        For: WeekEnds Holidays AllOtherDays,               !- Field 13
        Until: 24:00,0.1773,               !- Field 14
        Through: 12/31,                  !- Field 15
        For: Weekdays,               !- Field 16
        Until: 7:00,0.1773,               !- Field 17
        Until: 21:00,0.9,               !- Field 18
        Until: 24:00,0.1773,               !- Field 19
        For: SummerDesignDay,
        Until: 24:00, 1,
        For: WinterDesignDay,
        Until: 24:00, 0,
        For: WeekEnds Holidays AllOtherDays,               !- Field 20
        Until: 24:00,0.1773;               !- Field 21

  Schedule:Compact,
    BLDG_LIGHT_CORRIDOR_SCH, !- Name
    Fraction,                !- Schedule Type Limits Name
    Through: 6/30,           !- Field 1
    For: Weekdays,           !- Field 2
    Until: 7:00,0.1773,      !- Field 3
        Until: 21:00,0.9,               !- Field 4
        Until: 24:00,0.1773,               !- Field 5
        For: SummerDesignDay,
        Until: 24:00, 1,
        For: WinterDesignDay,
        Until: 24:00, 0,
        For: WeekEnds Holidays AllOtherDays,               !- Field 6
        Until: 24:00,0.1773,               !- Field 7
        Through: 9/1,                  !- Field 8
        For: Weekdays,               !- Field 9
        Until: 8:00,0.1773,               !- Field 10
        Until: 20:00,0.5,               !- Field 11
        Until: 24:00,0.1773,               !- Field 12
        For: SummerDesignDay,
        Until: 24:00, 1,
        For: WinterDesignDay,
        Until: 24:00, 0,
        For: WeekEnds Holidays AllOtherDays,               !- Field 13
        Until: 24:00,0.1773,               !- Field 14
        Through: 12/31,                  !- Field 15
        For: Weekdays,               !- Field 16
        Until: 7:00,0.1773,               !- Field 17
        Until: 21:00,0.9,               !- Field 18
        Until: 24:00,0.1773,               !- Field 19
        For: SummerDesignDay,
        Until: 24:00, 1,
        For: WinterDesignDay,
        Until: 24:00, 0,
        For: WeekEnds Holidays AllOtherDays,               !- Field 20
        Until: 24:00,0.1773;               !- Field 21

  Schedule:Compact,
    BLDG_LIGHT_GYM_SCH,      !- Name
    Fraction,                !- Schedule Type Limits Name
    Through: 6/30,           !- Field 1
    For: Weekdays,           !- Field 2
    Until: 7:00,0.1773,      !- Field 3
        Until: 21:00,0.9,               !- Field 4
        Until: 24:00,0.1773,               !- Field 5
        For: SummerDesignDay,
        Until: 24:00, 1,
        For: WinterDesignDay,
        Until: 24:00, 0,
        For: WeekEnds Holidays AllOtherDays,               !- Field 6
        Until: 24:00,0.1773,               !- Field 7
        Through: 9/1,                  !- Field 8
        For: Weekdays,               !- Field 9
        Until: 8:00,0.1773,               !- Field 10
        Until: 20:00,0.5,               !- Field 11
        Until: 24:00,0.1773,               !- Field 12
        For: SummerDesignDay,
        Until: 24:00, 1,
        For: WinterDesignDay,
        Until: 24:00, 0,
        For: WeekEnds Holidays AllOtherDays,               !- Field 13
        Until: 24:00,0.1773,               !- Field 14
        Through: 12/31,                  !- Field 15
        For: Weekdays,               !- Field 16
        Until: 7:00,0.1773,               !- Field 17
        Until: 21:00,0.9,               !- Field 18
        Until: 24:00,0.1773,               !- Field 19
        For: SummerDesignDay,
        Until: 24:00, 1,
        For: WinterDesignDay,
        Until: 24:00, 0,
        For: WeekEnds Holidays AllOtherDays,               !- Field 20
        Until: 24:00,0.1773;               !- Field 21

  Schedule:Compact,
    BLDG_LIGHT_LIBRARY_SCH,  !- Name
    Fraction,                !- Schedule Type Limits Name
    Through: 6/30,           !- Field 1
    For: Weekdays,           !- Field 2
    Until: 7:00,0.1773,      !- Field 3
        Until: 21:00,0.9,               !- Field 4
        Until: 24:00,0.1773,               !- Field 5
        For: SummerDesignDay,
        Until: 24:00, 1,
        For: WinterDesignDay,
        Until: 24:00, 0,
        For: WeekEnds Holidays AllOtherDays,               !- Field 6
        Until: 24:00,0.1773,               !- Field 7
        Through: 9/1,                  !- Field 8
        For: Weekdays,               !- Field 9
        Until: 8:00,0.1773,               !- Field 10
        Until: 20:00,0.5,               !- Field 11
        Until: 24:00,0.1773,               !- Field 12
        For: SummerDesignDay,
        Until: 24:00, 1,
        For: WinterDesignDay,
        Until: 24:00, 0,
        For: WeekEnds Holidays AllOtherDays,               !- Field 13
        Until: 24:00,0.1773,               !- Field 14
        Through: 12/31,                  !- Field 15
        For: Weekdays,               !- Field 16
        Until: 7:00,0.1773,               !- Field 17
        Until: 21:00,0.9,               !- Field 18
        Until: 24:00,0.1773,               !- Field 19
        For: SummerDesignDay,
        Until: 24:00, 1,
        For: WinterDesignDay,
        Until: 24:00, 0,
        For: WeekEnds Holidays AllOtherDays,               !- Field 20
        Until: 24:00,0.1773;               !- Field 21

  Schedule:Compact,
    BLDG_LIGHT_LOBBYFLR1_SCH,!- Name
    Fraction,                !- Schedule Type Limits Name
    Through: 6/30,           !- Field 1
    For: Weekdays,           !- Field 2
    Until: 7:00,0.1773,      !- Field 3
        Until: 21:00,0.9,               !- Field 4
        Until: 24:00,0.1773,               !- Field 5
        For: SummerDesignDay,
        Until: 24:00, 1,
        For: WinterDesignDay,
        Until: 24:00, 0,
        For: WeekEnds Holidays AllOtherDays,               !- Field 6
    Until: 24:00,0.1773,     !- Field 7
        Through: 9/1,                  !- Field 8
        For: Weekdays,               !- Field 9
        Until: 8:00,0.1773,               !- Field 10
        Until: 20:00,0.5,               !- Field 11
        Until: 24:00,0.1773,               !- Field 12
        For: SummerDesignDay,
        Until: 24:00, 1,
        For: WinterDesignDay,
        Until: 24:00, 0,
        For: WeekEnds Holidays AllOtherDays,               !- Field 13
        Until: 24:00,0.1773,               !- Field 14
        Through: 12/31,                  !- Field 15
        For: Weekdays,               !- Field 16
        Until: 7:00,0.1773,               !- Field 17
        Until: 21:00,0.9,               !- Field 18
        Until: 24:00,0.1773,               !- Field 19
        For: SummerDesignDay,
        Until: 24:00, 1,
        For: WinterDesignDay,
        Until: 24:00, 0,
        For: WeekEnds Holidays AllOtherDays,               !- Field 20
        Until: 24:00,0.1773;               !- Field 21
    Schedule:Compact,
        BLDG_LIGHT_MECHANIC_SCH,                    !- Name
        Fraction,                        !- Schedule Type Limits Name
        Through: 6/30,                  !- Field 1
        For: Weekdays,               !- Field 2
        Until: 7:00,0.1773,               !- Field 3
        Until: 21:00,0.9,               !- Field 4
        Until: 24:00,0.1773,               !- Field 5
        For: SummerDesignDay,
        Until: 24:00, 1,
        For: WinterDesignDay,
        Until: 24:00, 0,
        For: WeekEnds Holidays AllOtherDays,               !- Field 6
        Until: 24:00,0.1773,               !- Field 7
        Through: 9/1,                  !- Field 8
        For: Weekdays,               !- Field 9
        Until: 8:00,0.1773,               !- Field 10
        Until: 20:00,0.5,               !- Field 11
        Until: 24:00,0.1773,               !- Field 12
        For: SummerDesignDay,
        Until: 24:00, 1,
        For: WinterDesignDay,
        Until: 24:00, 0,
        For: WeekEnds Holidays AllOtherDays,               !- Field 13
        Until: 24:00,0.1773,               !- Field 14
        Through: 12/31,                  !- Field 15
        For: Weekdays,               !- Field 16
        Until: 7:00,0.1773,               !- Field 17
        Until: 21:00,0.9,               !- Field 18
        Until: 24:00,0.1773,               !- Field 19
        For: SummerDesignDay,
        Until: 24:00, 1,
        For: WinterDesignDay,
        Until: 24:00, 0,
        For: WeekEnds Holidays AllOtherDays,               !- Field 20
        Until: 24:00,0.1773;               !- Field 21
    Schedule:Compact,
        BLDG_LIGHT_MISC_SCH,                    !- Name
        Fraction,                        !- Schedule Type Limits Name
        Through: 6/30,                  !- Field 1
        For: Weekdays,               !- Field 2
        Until: 7:00,0.1773,               !- Field 3
        Until: 21:00,0.9,               !- Field 4
        Until: 24:00,0.1773,               !- Field 5
        For: SummerDesignDay,
        Until: 24:00, 1,
        For: WinterDesignDay,
        Until: 24:00, 0,
        For: WeekEnds Holidays AllOtherDays,               !- Field 6
        Until: 24:00,0.1773,               !- Field 7
        Through: 9/1,                  !- Field 8
        For: Weekdays,               !- Field 9
        Until: 8:00,0.1773,               !- Field 10
        Until: 20:00,0.5,               !- Field 11
        Until: 24:00,0.1773,               !- Field 12
        For: SummerDesignDay,
        Until: 24:00, 1,
        For: WinterDesignDay,
        Until: 24:00, 0,
        For: WeekEnds Holidays AllOtherDays,               !- Field 13
        Until: 24:00,0.1773,               !- Field 14
        Through: 12/31,                  !- Field 15
        For: Weekdays,               !- Field 16
        Until: 7:00,0.1773,               !- Field 17
        Until: 21:00,0.9,               !- Field 18
        Until: 24:00,0.1773,               !- Field 19
        For: SummerDesignDay,
        Until: 24:00, 1,
        For: WinterDesignDay,
        Until: 24:00, 0,
        For: WeekEnds Holidays AllOtherDays,               !- Field 20
        Until: 24:00,0.1773;               !- Field 21

  Schedule:Compact,
    BLDG_LIGHT_OFFICE_SCH,   !- Name
    Fraction,                !- Schedule Type Limits Name
    Through: 6/30,           !- Field 1
    For: Weekdays,           !- Field 2
    Until: 7:00,0.1773,      !- Field 3
        Until: 21:00,0.9,               !- Field 4
        Until: 24:00,0.1773,               !- Field 5
        For: SummerDesignDay,
        Until: 24:00, 1,
        For: WinterDesignDay,
        Until: 24:00, 0,
        For: WeekEnds Holidays AllOtherDays,               !- Field 6
        Until: 24:00,0.1773,               !- Field 7
        Through: 9/1,                  !- Field 8
        For: Weekdays,               !- Field 9
        Until: 8:00,0.1773,               !- Field 10
        Until: 20:00,0.5,               !- Field 11
        Until: 24:00,0.1773,               !- Field 12
        For: SummerDesignDay,
        Until: 24:00, 1,
        For: WinterDesignDay,
        Until: 24:00, 0,
        For: WeekEnds Holidays AllOtherDays,               !- Field 13
        Until: 24:00,0.1773,               !- Field 14
        Through: 12/31,                  !- Field 15
        For: Weekdays,               !- Field 16
        Until: 7:00,0.1773,               !- Field 17
        Until: 21:00,0.9,               !- Field 18
        Until: 24:00,0.1773,               !- Field 19
        For: SummerDesignDay,
        Until: 24:00, 1,
        For: WinterDesignDay,
        Until: 24:00, 0,
        For: WeekEnds Holidays AllOtherDays,               !- Field 20
        Until: 24:00,0.1773;               !- Field 21

  Schedule:Compact,
    BLDG_LIGHT_SCH,          !- Name
    Fraction,                !- Schedule Type Limits Name
    Through: 6/30,           !- Field 1
    For: Weekdays,           !- Field 2
    Until: 7:00,0.1773,      !- Field 3
        Until: 21:00,0.9,               !- Field 4
        Until: 24:00,0.1773,               !- Field 5
        For: SummerDesignDay,
        Until: 24:00, 1,
        For: WinterDesignDay,
        Until: 24:00, 0,
        For: WeekEnds Holidays AllOtherDays,               !- Field 6
        Until: 24:00,0.1773,               !- Field 7
        Through: 9/1,                  !- Field 8
        For: Weekdays,               !- Field 9
        Until: 8:00,0.1773,               !- Field 10
        Until: 20:00,0.5,               !- Field 11
        Until: 24:00,0.1773,               !- Field 12
        For: SummerDesignDay,
        Until: 24:00, 1,
        For: WinterDesignDay,
        Until: 24:00, 0,
        For: WeekEnds Holidays AllOtherDays,               !- Field 13
        Until: 24:00,0.1773,               !- Field 14
        Through: 12/31,                  !- Field 15
        For: Weekdays,               !- Field 16
        Until: 7:00,0.1773,               !- Field 17
        Until: 21:00,0.9,               !- Field 18
        Until: 24:00,0.1773,               !- Field 19
        For: SummerDesignDay,
        Until: 24:00, 1,
        For: WinterDesignDay,
        Until: 24:00, 0,
        For: WeekEnds Holidays AllOtherDays,               !- Field 20
        Until: 24:00,0.1773;               !- Field 21






















  Schedule:Compact,
    BLDG_EQUIP_SCH,          !- Name
    Fraction,                !- Schedule Type Limits Name
    Through: 6/30,           !- Field 1
    For: SummerDesignDay,    !- Field 2
    Until: 08:00,0.35,       !- Field 3
    Until: 17:00,0.95,       !- Field 5
    Until: 24:00,0.35,       !- Field 7
    For: WinterDesignDay,    !- Field 9
    Until: 24:00,0.35,       !- Field 10
    For: Weekdays, !- Field 2
    Until: 08:00,0.35,       !- Field 3
    Until: 17:00,0.95,       !- Field 5
    Until: 21:00,0.35,       !- Field 7
    Until: 24:00,0.35,       !- Field 7
    For: WeekEnds Holidays AllOtherDays, !- Field 9
    Until: 24:00,0.35,       !- Field 10
    Through: 9/1,            !- Field 12
    For: SummerDesignDay, !- Field 13
    Until: 08:00,0.25,       !- Field 14
    Until: 17:00,0.50,        !- Field 16
    Until: 24:00,0.25,       !- Field 18
    For: WinterDesignDay, !- Field 20
    Until: 24:00,0.25,       !- Field 21
    For: Weekdays, !- Field 13
    Until: 08:00,0.25,       !- Field 14
    Until: 17:00,0.5,        !- Field 16
    Until: 21:00,0.25,       !- Field 18
    Until: 24:00,0.25,       !- Field 18
    For: WeekEnds Holidays AllOtherDays, !- Field 20
    Until: 24:00,0.25,       !- Field 21
    Through: 12/31,          !- Field 23
    For: SummerDesignDay, !- Field 24
    Until: 08:00,0.35,       !- Field 25
    Until: 17:00,0.95,       !- Field 27
    Until: 24:00,0.35,       !- Field 29
    For: WinterDesignDay, !- Field 31
    Until: 24:00,0.35,       !- Field 32
    For: Weekdays , !- Field 24
    Until: 08:00,0.35,       !- Field 25
    Until: 17:00,0.95,       !- Field 27
    Until: 21:00,0.35,       !- Field 29
    Until: 24:00,0.35,       !- Field 29
    For: WeekEnds Holidays AllOtherDays, !- Field 31
    Until: 24:00,0.35;       !- Field 32

  Schedule:Compact,
    KITCHEN_ELEC_EQUIP_SCH,  !- Name
    Fraction,                !- Schedule Type Limits Name
    Through: 6/30,           !- Field 1
    For: Weekdays SummerDesignDay, !- Field 2
    Until: 08:00,0.1,        !- Field 3
    Until: 10:00,0.15,       !- Field 5
    Until: 13:00,0.25,       !- Field 7
    Until: 15:00,0.15,       !- Field 9
    Until: 24:00,0.1,        !- Field 11
    For: WeekEnds WinterDesignDay Holidays AllOtherDays, !- Field 13
    Until: 24:00,0.1,        !- Field 14
    Through: 9/1,            !- Field 16
    For: Weekdays SummerDesignDay, !- Field 17
    Until: 08:00,0.1,        !- Field 18
    Until: 10:00,0.15,       !- Field 20
    Until: 13:00,0.25,       !- Field 22
    Until: 15:00,0.15,       !- Field 24
    Until: 24:00,0.1,        !- Field 26
    For: WeekEnds WinterDesignDay Holidays AllOtherDays, !- Field 28
    Until: 24:00,0.1,        !- Field 29
    Through: 12/31,          !- Field 31
    For: Weekdays SummerDesignDay, !- Field 32
    Until: 08:00,0.1,        !- Field 33
    Until: 10:00,0.15,       !- Field 35
    Until: 13:00,0.25,       !- Field 37
    Until: 15:00,0.15,       !- Field 39
    Until: 24:00,0.1,        !- Field 41
    For: WeekEnds WinterDesignDay Holidays AllOtherDays, !- Field 43
    Until: 24:00,0.1;        !- Field 44

  Schedule:Compact,
    KITCHEN_GAS_EQUIP_SCH,   !- Name
    Fraction,                !- Schedule Type Limits Name
    Through: 6/30,           !- Field 1
    For: Weekdays SummerDesignDay, !- Field 2
    Until: 08:00,0.02,       !- Field 3
    Until: 10:00,0.15,       !- Field 5
    Until: 13:00,0.2,        !- Field 7
    Until: 15:00,0.1,        !- Field 9
    Until: 24:00,0.02,       !- Field 11
    For: WeekEnds WinterDesignDay Holidays AllOtherDays, !- Field 13
    Until: 24:00,0.02,       !- Field 14
    Through: 9/1,            !- Field 16
    For: Weekdays SummerDesignDay, !- Field 17
    Until: 08:00,0.02,       !- Field 18
    Until: 10:00,0.15,       !- Field 20
    Until: 13:00,0.2,        !- Field 22
    Until: 15:00,0.1,        !- Field 24
    Until: 24:00,0.02,       !- Field 26
    For: WeekEnds WinterDesignDay Holidays AllOtherDays, !- Field 28
    Until: 24:00,0.02,       !- Field 29
    Through: 12/31,          !- Field 31
    For: Weekdays SummerDesignDay, !- Field 32
    Until: 08:00,0.02,       !- Field 33
    Until: 10:00,0.15,       !- Field 35
    Until: 13:00,0.2,        !- Field 37
    Until: 15:00,0.1,        !- Field 39
    Until: 24:00,0.02,       !- Field 41
    For: WeekEnds WinterDesignDay Holidays AllOtherDays, !- Field 43
    Until: 24:00,0.02;       !- Field 44



  Schedule:Compact,
    BLDG_ELEVATORS,          !- Name
    Fraction,                !- Schedule Type Limits Name
    Through: 12/31,          !- Field 1
    For: SummerDesignDay,    !- Field 2
    Until: 24:00,0.30,       !- Field 3
    For: WinterDesignDay,    !- Field 5
    Until: 24:00,0.00,       !- Field 6
    For: Weekdays,           !- Field 8
    Until: 08:00,0.00,       !- Field 9
    Until: 15:00,0.30,       !- Field 11
    Until: 16:00,0.15,       !- Field 13
    Until: 24:00,0.00,       !- Field 15
    For: AllOtherDays,       !- Field 17
    Until: 24:00,0.00;       !- Field 18



  Schedule:Compact,
    ELEV_LIGHT_FAN_SCH_24_7, !- Name
    Fraction,                !- Schedule Type Limits Name
    Through: 12/31,          !- Field 1
    For: AllDays,            !- Field 2
    Until: 24:00,1;          !- Field 3



  Schedule:Compact,
    ELEV_LIGHT_FAN_SCH_ADD_DF,  !- Name
    Fraction,                !- Schedule Type Limits Name
    Through: 12/31,          !- Field 1
    For: SummerDesignDay,    !- Field 2
    Until: 24:00,0.30,       !- Field 3
    For: WinterDesignDay,    !- Field 5
    Until: 24:00,0.00,       !- Field 6
    For: Weekdays,           !- Field 8
    Until: 08:00,0.00,       !- Field 9
    Until: 15:00,0.30,       !- Field 11
    Until: 16:00,0.15,       !- Field 13
    Until: 24:00,0.00,       !- Field 15
    For: AllOtherDays,       !- Field 17
    Until: 24:00,0.00;       !- Field 18



  Schedule:Compact,
    BLDG_OCC_SCH,            !- Name
    Fraction,                !- Schedule Type Limits Name
    Through: 6/15,           !- Field 1
    For: Weekdays,           !- Field 2
    Until: 08:00,0,          !- Field 3
    Until: 16:00,0.95,       !- Field 5
    Until: 21:00,0.15,       !- Field 7
    Until: 24:00,0,          !- Field 9
	For: SummerDesignDay, !- Field 2
    Until: 08:00,0.000000001,          !- Field 3
    Until: 16:00,0.95,       !- Field 5
    Until: 21:00,0.15,       !- Field 7
    Until: 24:00,0.000000001,          !- Field 9
    For: WeekEnds WinterDesignDay Holidays AllOtherDays, !- Field 11
    Until: 24:00,0,          !- Field 12
    Through: 9/15,           !- Field 14
    For: Weekdays, !- Field 15
    Until: 08:00,0,          !- Field 16
    Until: 16:00,0.15,       !- Field 18
    Until: 21:00,0.15,       !- Field 20
    Until: 24:00,0,          !- Field 22
    For: SummerDesignDay, !- Field 15
    Until: 08:00,0.000000001,          !- Field 16
    Until: 16:00,0.15,       !- Field 18
    Until: 21:00,0.15,       !- Field 20
    Until: 24:00,0.000000001,          !- Field 22
    For: WeekEnds WinterDesignDay Holidays AllOtherDays, !- Field 24
    Until: 24:00,0,          !- Field 25
    Through: 12/31,          !- Field 27
    For: Weekdays, !- Field 28
    Until: 08:00,0,          !- Field 29
    Until: 16:00,0.95,       !- Field 31
    Until: 21:00,0.15,       !- Field 33
    Until: 24:00,0,          !- Field 35
    For: SummerDesignDay, !- Field 28
    Until: 08:00,0.000000001,          !- Field 29
    Until: 16:00,0.95,       !- Field 31
    Until: 21:00,0.15,       !- Field 33
    Until: 24:00,0.000000001,          !- Field 35
    For: WeekEnds WinterDesignDay Holidays AllOtherDays, !- Field 37
    Until: 24:00,0;          !- Field 38

  Schedule:Compact,
    BLDG_OCC_SCH_Extend,     !- Name
    Fraction,                !- Schedule Type Limits Name
    Through: 6/30,           !- Field 1
    For: Weekdays,           !- Field 2
    Until: 08:00,0,          !- Field 3
    Until: 16:00,0.95,       !- Field 5
    Until: 21:00,0.95,       !- Field 7
    Until: 24:00,0,          !- Field 9
    For: SummerDesignDay, !- Field 2
    Until: 08:00,0.000000001,          !- Field 3
    Until: 16:00,0.95,       !- Field 5
    Until: 21:00,0.95,       !- Field 7
    Until: 24:00,0.000000001,          !- Field 9
    For: WeekEnds WinterDesignDay Holidays AllOtherDays, !- Field 11
    Until: 24:00,0,          !- Field 12
    Through: 9/1,            !- Field 14
    For: Weekdays, !- Field 15
    Until: 08:00,0,          !- Field 16
    Until: 17:00,0.5,        !- Field 18
    Until: 21:00,0.5,        !- Field 20
    Until: 24:00,0,          !- Field 22
    For: SummerDesignDay, !- Field 15
    Until: 08:00,0.000000001,          !- Field 16
    Until: 17:00,0.5,        !- Field 18
    Until: 21:00,0.5,        !- Field 20
    Until: 24:00,0.000000001,          !- Field 22
    For: WeekEnds WinterDesignDay Holidays AllOtherDays, !- Field 24
    Until: 24:00,0,          !- Field 25
    Through: 12/31,          !- Field 27
    For: Weekdays, !- Field 28
    Until: 08:00,0,          !- Field 29
    Until: 17:00,0.95,       !- Field 31
    Until: 21:00,0.95,       !- Field 33
    Until: 24:00,0,          !- Field 35
    For: SummerDesignDay, !- Field 28
    Until: 08:00,0.000000001,          !- Field 29
    Until: 17:00,0.95,       !- Field 31
    Until: 21:00,0.95,       !- Field 33
    Until: 24:00,0.000000001,          !- Field 35
    For: WeekEnds WinterDesignDay Holidays AllOtherDays, !- Field 37
    Until: 24:00,0;          !- Field 38

  Schedule:Compact,
    BLDG_OCC_SCH_Offices,    !- Name
    Fraction,                !- Schedule Type Limits Name
    Through: 6/30,           !- Field 1
    For: Weekdays,           !- Field 2
    Until: 08:00,0,          !- Field 3
    Until: 17:00,0.95,       !- Field 5
    Until: 21:00,0.15,       !- Field 7
    Until: 24:00,0,          !- Field 9
    For: SummerDesignDay, !- Field 2
    Until: 08:00,0.000000001,          !- Field 3
    Until: 17:00,0.95,       !- Field 5
    Until: 21:00,0.15,       !- Field 7
    Until: 24:00,0.000000001,          !- Field 9
    For: WeekEnds WinterDesignDay Holidays AllOtherDays, !- Field 11
    Until: 24:00,0,          !- Field 12
    Through: 9/1,            !- Field 14
    For: Weekdays, !- Field 15
    Until: 08:00,0,          !- Field 16
    Until: 17:00,0.5,        !- Field 18
    Until: 21:00,0.15,       !- Field 20
    Until: 24:00,0,          !- Field 22
    For: SummerDesignDay, !- Field 15
    Until: 08:00,0.000000001,          !- Field 16
    Until: 17:00,0.5,        !- Field 18
    Until: 21:00,0.15,       !- Field 20
    Until: 24:00,0.000000001,          !- Field 22
    For: WeekEnds WinterDesignDay Holidays AllOtherDays, !- Field 24
    Until: 24:00,0,          !- Field 25
    Through: 12/31,          !- Field 27
    For: Weekdays, !- Field 28
    Until: 08:00,0,          !- Field 29
    Until: 17:00,0.95,       !- Field 31
    Until: 21:00,0.15,       !- Field 33
    Until: 24:00,0,          !- Field 35
    For: SummerDesignDay, !- Field 28
    Until: 08:00,0.000000001,          !- Field 29
    Until: 17:00,0.95,       !- Field 31
    Until: 21:00,0.15,       !- Field 33
    Until: 24:00,0.000000001,          !- Field 35
    For: WeekEnds WinterDesignDay Holidays AllOtherDays, !- Field 37
    Until: 24:00,0;          !- Field 38
  Schedule:Compact,
    BLDG_OCC_SCH_Offices_w_SB,   !-Name
    Fraction,   !-Schedule Type Limits Name
    Through: 6/30,
    For: Weekdays,
    Until: 01:00, 0,
    Until: 02:00, 0,
    Until: 03:00, 0,
    Until: 04:00, 0,
    Until: 05:00, 0,
    Until: 06:00, 0,
    Until: 07:00, 0,
    Until: 08:00, 0,
    Until: 09:00, 0.95,
    Until: 10:00, 0.95,
    Until: 11:00, 0.95,
    Until: 12:00, 0.95,
    Until: 13:00, 0,
    Until: 14:00, 0.95,
    Until: 15:00, 0,
    Until: 16:00, 0.95,
    Until: 17:00, 0.95,
    Until: 18:00, 0.15,
    Until: 19:00, 0.15,
    Until: 20:00, 0.15,
    Until: 21:00, 0.15,
    Until: 22:00, 0,
    Until: 23:00, 0,
    Until: 24:00, 0,
    For: SummerDesignDay,
    Until: 08:00,0.000000001,
    Until: 17:00,0.95,
    Until: 21:00,0.15,
    Until: 24:00,0.000000001,
    For: WeekEnds Holidays AllOtherDays,
    Until: 24:00,0,
    Through: 9/1,
    For: Weekdays,
    Until: 01:00, 0,
    Until: 02:00, 0,
    Until: 03:00, 0,
    Until: 04:00, 0,
    Until: 05:00, 0,
    Until: 06:00, 0,
    Until: 07:00, 0,
    Until: 08:00, 0,
    Until: 09:00, 0.5,
    Until: 10:00, 0.5,
    Until: 11:00, 0.5,
    Until: 12:00, 0,
    Until: 13:00, 0.5,
    Until: 14:00, 0.5,
    Until: 15:00, 0,
    Until: 16:00, 0.5,
    Until: 17:00, 0.5,
    Until: 18:00, 0.15,
    Until: 19:00, 0.15,
    Until: 20:00, 0.15,
    Until: 21:00, 0.15,
    Until: 22:00, 0,
    Until: 23:00, 0,
    Until: 24:00, 0,
    For: SummerDesignDay,
    Until: 08:00,0.000000001,
    Until: 17:00,0.5,
    Until: 21:00,0.15,
    Until: 24:00,0.000000001,
    For: WeekEnds Holidays AllOtherDays,
    Until: 24:00,0,
    Through: 12/31,
    For: Weekdays,
    Until: 01:00, 0,
    Until: 02:00, 0,
    Until: 03:00, 0,
    Until: 04:00, 0,
    Until: 05:00, 0,
    Until: 06:00, 0,
    Until: 07:00, 0,
    Until: 08:00, 0,
    Until: 09:00, 0.95,
    Until: 10:00, 0.95,
    Until: 11:00, 0.95,
    Until: 12:00, 0.95,
    Until: 13:00, 0,
    Until: 14:00, 0.95,
    Until: 15:00, 0,
    Until: 16:00, 0.95,
    Until: 17:00, 0.95,
    Until: 18:00, 0.15,
    Until: 19:00, 0.15,
    Until: 20:00, 0.15,
    Until: 21:00, 0.15,
    Until: 22:00, 0,
    Until: 23:00, 0,
    Until: 24:00, 0,
    For: SummerDesignDay,
    Until: 08:00,0.000000001,
    Until: 17:00,0.95,
    Until: 21:00,0.15,
    Until: 24:00,0.000000001,
    For: WeekEnds WinterDesignDay Holidays AllOtherDays,
    Until: 24:00,0;
  Schedule:Compact,
    Offices Binary Occupancy,   !-Name
    Fraction,   !-Schedule Type Limits Name
    Through: 6/30,
    For: Weekdays,
    Until: 01:00, 0,
    Until: 02:00, 0,
    Until: 03:00, 0,
    Until: 04:00, 0,
    Until: 05:00, 0,
    Until: 06:00, 0,
    Until: 07:00, 0,
    Until: 08:00, 0,
    Until: 09:00, 1,
    Until: 10:00, 1,
    Until: 11:00, 1,
    Until: 12:00, 1,
    Until: 13:00, 1,
    Until: 14:00, 1,
    Until: 15:00, 1,
    Until: 16:00, 1,
    Until: 17:00, 1,
    Until: 18:00, 1,
    Until: 19:00, 1,
    Until: 21:00, 1,
    Until: 21:00, 1,
    Until: 22:00, 0,
    Until: 23:00, 0,
    Until: 24:00, 0,
    For: SummerDesignDay,
    Until: 08:00,0.000000001,
    Until: 17:00,0.95,
    Until: 21:00,0.15,
    Until: 24:00,0.000000001,
    For: WeekEnds Holidays AllOtherDays,
    Until: 24:00,0,
    Through: 9/1,
    For: Weekdays,
    Until: 01:00, 0,
    Until: 02:00, 0,
    Until: 03:00, 0,
    Until: 04:00, 0,
    Until: 05:00, 0,
    Until: 06:00, 0,
    Until: 07:00, 0,
    Until: 08:00, 0,
    Until: 09:00, 1,
    Until: 10:00, 1,
    Until: 11:00, 1,
    Until: 12:00, 1,
    Until: 13:00, 1,
    Until: 14:00, 1,
    Until: 15:00, 1,
    Until: 16:00, 1,
    Until: 17:00, 1,
    Until: 18:00, 1,
    Until: 19:00, 1,
    Until: 20:00, 1,
    Until: 21:00, 1,
    Until: 22:00, 0,
    Until: 23:00, 0,
    Until: 24:00, 0,
    For: SummerDesignDay,
    Until: 08:00,0.000000001,
    Until: 17:00,0.5,
    Until: 21:00,0.15,
    Until: 24:00,0.000000001,
    For: WeekEnds Holidays AllOtherDays,
    Until: 24:00,0,
    Through: 12/31,
    For: Weekdays,
    Until: 01:00, 0,
    Until: 02:00, 0,
    Until: 03:00, 0,
    Until: 04:00, 0,
    Until: 05:00, 0,
    Until: 06:00, 0,
    Until: 07:00, 0,
    Until: 08:00, 0,
    Until: 09:00, 1,
    Until: 10:00, 1,
    Until: 11:00, 1,
    Until: 12:00, 1,
    Until: 13:00, 1,
    Until: 14:00, 1,
    Until: 15:00, 1,
    Until: 16:00, 1,
    Until: 17:00, 1,
    Until: 18:00, 1,
    Until: 19:00, 1,
    Until: 20:00, 1,
    Until: 21:00, 1,
    Until: 22:00, 0,
    Until: 23:00, 0,
    Until: 24:00, 0,
    For: SummerDesignDay,
    Until: 08:00,0.000000001,
    Until: 17:00,0.95,
    Until: 21:00,0.15,
    Until: 24:00,0.000000001,
    For: WeekEnds WinterDesignDay Holidays AllOtherDays,
    Until: 24:00,0;

  Schedule:Compact,
    BLDG_OCC_SCH_Gym,        !- Name
    Fraction,                !- Schedule Type Limits Name
    Through: 6/30,           !- Field 1
    For: Weekdays,           !- Field 2
    Until: 08:00,0,          !- Field 3
    Until: 16:00,0.35,       !- Field 5
    Until: 21:00,0.95,       !- Field 7
    Until: 24:00,0,          !- Field 9
    For: SummerDesignDay, !- Field 2
    Until: 08:00,0.000000001,          !- Field 3
    Until: 16:00,0.35,       !- Field 5
    Until: 21:00,0.95,       !- Field 7
    Until: 24:00,0.000000001,          !- Field 9
    For: WeekEnds WinterDesignDay Holidays AllOtherDays, !- Field 11
    Until: 24:00,0,          !- Field 12
    Through: 9/1,            !- Field 14
    For: Weekdays, !- Field 15
    Until: 08:00,0,          !- Field 16
    Until: 16:00,0.35,       !- Field 18
    Until: 21:00,0.35,       !- Field 20
    Until: 24:00,0,          !- Field 22
    For: SummerDesignDay, !- Field 15
    Until: 08:00,0.000000001,          !- Field 16
    Until: 16:00,0.35,       !- Field 18
    Until: 21:00,0.35,       !- Field 20
    Until: 24:00,0.000000001,          !- Field 22
    For: WeekEnds WinterDesignDay Holidays AllOtherDays, !- Field 24
    Until: 24:00,0,          !- Field 25
    Through: 12/31,          !- Field 27
    For: Weekdays, !- Field 28
    Until: 08:00,0,          !- Field 29
    Until: 16:00,0.35,       !- Field 31
    Until: 21:00,0.95,       !- Field 33
    Until: 24:00,0,          !- Field 35
    For: SummerDesignDay, !- Field 28
    Until: 08:00,0.000000001,          !- Field 29
    Until: 16:00,0.35,       !- Field 31
    Until: 21:00,0.95,       !- Field 33
    Until: 24:00,0.000000001,          !- Field 35
    For: WeekEnds WinterDesignDay Holidays AllOtherDays, !- Field 37
    Until: 24:00,0;          !- Field 38

  Schedule:Compact,
    BLDG_OCC_SCH_Auditorium, !- Name
    Fraction,                !- Schedule Type Limits Name
    Through: 6/30,           !- Field 1
    For: Weekdays,           !- Field 2
    Until: 08:00,0,          !- Field 3
    Until: 15:00,0.25,       !- Field 5
    Until: 20:00,0.95,       !- Field 7
    Until: 24:00,0,          !- Field 9
	For: SummerDesignDay, !- Field 2
    Until: 08:00,0.000000001,          !- Field 3
    Until: 15:00,0.25,       !- Field 5
    Until: 20:00,0.95,       !- Field 7
    Until: 24:00,0.000000001,          !- Field 9
    For: WeekEnds WinterDesignDay Holidays AllOtherDays, !- Field 11
    Until: 24:00,0,          !- Field 12
    Through: 9/1,            !- Field 14
    For: Weekdays, !- Field 15
    Until: 08:00,0,          !- Field 16
    Until: 17:00,0.15,       !- Field 18
    Until: 19:00,0.35,       !- Field 20
    Until: 24:00,0,          !- Field 22
	For: SummerDesignDay, !- Field 15
    Until: 08:00,0.000000001,          !- Field 16
    Until: 17:00,0.15,       !- Field 18
    Until: 19:00,0.35,       !- Field 20
    Until: 24:00,0.000000001,          !- Field 22
    For: WeekEnds WinterDesignDay Holidays AllOtherDays, !- Field 24
    Until: 24:00,0,          !- Field 25
    Through: 12/31,          !- Field 27
    For: Weekdays, !- Field 28
    Until: 08:00,0,          !- Field 29
    Until: 15:00,0.25,       !- Field 31
    Until: 20:00,0.95,       !- Field 33
    Until: 24:00,0,          !- Field 35
	For: SummerDesignDay, !- Field 28
    Until: 08:00,0.000000001,          !- Field 29
    Until: 15:00,0.25,       !- Field 31
    Until: 20:00,0.95,       !- Field 33
    Until: 24:00,0.000000001,          !- Field 35
    For: WeekEnds WinterDesignDay Holidays AllOtherDays, !- Field 37
    Until: 24:00,0;          !- Field 38

  Schedule:Compact,
    BLDG_OCC_SCH_Cafeteria,  !- Name
    Fraction,                !- Schedule Type Limits Name
    Through: 6/30,           !- Field 1
    For: Weekdays,           !- Field 2
    Until: 09:00,0,          !- Field 3
    Until: 15:00,0.95,       !- Field 5
    Until: 20:00,0.35,       !- Field 7
    Until: 24:00,0,          !- Field 9
    For: SummerDesignDay, !- Field 2
    Until: 09:00,0.000000001,          !- Field 3
    Until: 15:00,0.95,       !- Field 5
    Until: 20:00,0.35,       !- Field 7
    Until: 24:00,0.000000001,          !- Field 9
    For: WeekEnds WinterDesignDay Holidays AllOtherDays, !- Field 11
    Until: 24:00,0,          !- Field 12
    Through: 9/1,            !- Field 14
    For: Weekdays, !- Field 15
    Until: 09:00,0,          !- Field 16
    Until: 17:00,0.15,       !- Field 18
    Until: 19:00,0.35,       !- Field 20
    Until: 24:00,0,          !- Field 22
    For: SummerDesignDay, !- Field 15
    Until: 09:00,0.000000001,          !- Field 16
    Until: 17:00,0.15,       !- Field 18
    Until: 19:00,0.35,       !- Field 20
    Until: 24:00,0.000000001,          !- Field 22
    For: WeekEnds WinterDesignDay Holidays AllOtherDays, !- Field 24
    Until: 24:00,0,          !- Field 25
    Through: 12/31,          !- Field 27
    For: Weekdays, !- Field 28
    Until: 09:00,0,          !- Field 29
    Until: 15:00,0.95,       !- Field 31
    Until: 20:00,0.35,       !- Field 33
    Until: 24:00,0,          !- Field 35
    For: SummerDesignDay, !- Field 28
    Until: 09:00,0.000000001,          !- Field 29
    Until: 15:00,0.95,       !- Field 31
    Until: 20:00,0.35,       !- Field 33
    Until: 24:00,0.000000001,          !- Field 35
    For: WeekEnds WinterDesignDay Holidays AllOtherDays, !- Field 37
    Until: 24:00,0;          !- Field 38



  Schedule:Compact,
    INFIL_SCH,               !- Name
    Fraction,                !- Schedule Type Limits Name
    Through: 12/31,          !- Field 1
    For: AllDays,            !- Field 2
    Until: 07:00,1,          !- Field 3
    Until: 21:00,0.25,       !- Field 5
    Until: 24:00,1;          !- Field 7

  Schedule:Compact,
    INFIL_SCH_PNNL,          !- Name
    fraction,                !- Schedule Type Limits Name
    Through: 12/31,          !- Field 1
    For: Weekdays SummerDesignDay, !- Field 2
    Until: 07:00,1.0,        !- Field 3
    Until: 21:00,0.25,       !- Field 5
    Until: 24:00,1.0,        !- Field 7
    For: WeekEnds WinterDesignDay Holidays AllOtherDays, !- Field 9
    Until: 24:00,1.0;        !- Field 10

  Schedule:Compact,
    INFIL_Door_Opening_SCH,  !- Name
    fraction,                !- Schedule Type Limits Name
    Through: 12/31,          !- Field 1
    For: Weekdays,           !- Field 2
    Until: 07:00,0.0,        !- Field 3
    Until: 08:00,1.0,        !- Field 5
    Until: 15:00,
    0.144,            !- Field 8
    Until: 17:00,1.0,        !- Field 9
    Until: 19:00,
    0.144,            !- Field 12
    Until: 24:00,0.0,        !- Field 13
    For: Saturday Sunday Holidays AllOtherDays, !- Field 15
    Until: 24:00,0.0;        !- Field 16



  Schedule:Compact,
    Booster Water Inlet Temp Schedule,  !- Name
    Any Number,              !- Schedule Type Limits Name
    THROUGH: 12/31,          !- Field 1
    FOR: AllDays,            !- Field 2
    UNTIL: 24:00,60.00;      !- Field 3



  Schedule:Compact,
    Booster Water Setpoint Temp Schedule,  !- Name
    Any Number,              !- Schedule Type Limits Name
    THROUGH: 12/31,          !- Field 1
    FOR: AllDays,            !- Field 2
    UNTIL: 24:00,82.22;      !- Field 3



  Schedule:Compact,
    BLDG_SWH_SCH,            !- Name
    Fraction,                !- Schedule Type Limits Name
    Through: 6/15,           !- Field 1
    For: SummerDesignDay,    !- Field 2
    Until: 07:00,0.05,       !- Field 3
    Until: 08:00,0.1,        !- Field 5
    Until: 09:00,0.34,       !- Field 7
    Until: 10:00,0.6,        !- Field 9
    Until: 11:00,0.63,       !- Field 11
    Until: 12:00,0.72,       !- Field 13
    Until: 13:00,0.79,       !- Field 15
    Until: 14:00,0.83,       !- Field 17
    Until: 15:00,0.61,       !- Field 19
    Until: 16:00,0.65,       !- Field 21
    Until: 18:00,0.1,        !- Field 23
    Until: 19:00,0.19,       !- Field 25
    Until: 20:00,0.25,       !- Field 27
    Until: 22:00,0.22,       !- Field 29
    Until: 23:00,0.12,       !- Field 31
    Until: 24:00,0.09,       !- Field 33
    For: Weekdays,           !- Field 35
    Until: 07:00,0.00,       !- Field 36
    Until: 08:00,0.00,       !- Field 38
    Until: 09:00,0.34,       !- Field 40
    Until: 10:00,0.6,        !- Field 42
    Until: 11:00,0.63,       !- Field 44
    Until: 12:00,0.72,       !- Field 46
    Until: 13:00,0.79,       !- Field 48
    Until: 14:00,0.83,       !- Field 50
    Until: 15:00,0.61,       !- Field 52
    Until: 16:00,0.65,       !- Field 54
    Until: 18:00,0.1,        !- Field 56
    Until: 19:00,0.19,       !- Field 58
    Until: 20:00,0.25,       !- Field 60
    Until: 22:00,0.00,       !- Field 62
    Until: 23:00,0.00,       !- Field 64
    Until: 24:00,0.00,       !- Field 66
    For: WinterDesignDay,    !- Field 68
    Until: 09:00,0.03,       !- Field 69
    Until: 13:00,0.05,       !- Field 71
    Until: 24:00,0.03,       !- Field 73
    For: Saturday,           !- Field 75
    Until: 09:00,0.00,       !- Field 76
    Until: 13:00,0.00,       !- Field 78
    Until: 24:00,0.00,       !- Field 80
    For: Sunday Holidays AllOtherDays, !- Field 82
    Until: 08:00,0.00,       !- Field 83
    Until: 14:00,0.00,       !- Field 85
    Until: 24:00,0.00,       !- Field 87
    Through: 9/15,           !- Field 89
    For: SummerDesignDay,    !- Field 90
    Until: 07:00,0.05,       !- Field 91
    Until: 18:00,0.1,        !- Field 93
    Until: 19:00,0.19,       !- Field 95
    Until: 20:00,0.25,       !- Field 97
    Until: 22:00,0.22,       !- Field 99
    Until: 23:00,0.12,       !- Field 101
    Until: 24:00,0.09,       !- Field 103
    For: Weekdays,           !- Field 105
    Until: 08:00,0.00,       !- Field 106
    Until: 18:00,0.1,        !- Field 108
    Until: 19:00,0.19,       !- Field 110
    Until: 20:00,0.25,       !- Field 112
    Until: 22:00,0.00,       !- Field 114
    Until: 23:00,0.00,       !- Field 116
    Until: 24:00,0.00,       !- Field 118
    For: WinterDesignDay,    !- Field 120
    Until: 09:00,0.03,       !- Field 121
    Until: 13:00,0.05,       !- Field 123
    Until: 24:00,0.03,       !- Field 125
    For: Saturday,           !- Field 127
    Until: 09:00,0.00,       !- Field 128
    Until: 13:00,0.00,       !- Field 130
    Until: 24:00,0.00,       !- Field 132
    For: Sunday Holidays AllOtherDays, !- Field 134
    Until: 08:00,0.00,       !- Field 135
    Until: 14:00,0.00,       !- Field 137
    Until: 24:00,0.00,       !- Field 139
    Through: 12/31,          !- Field 141
    For: SummerDesignDay,    !- Field 142
    Until: 07:00,0.05,       !- Field 143
    Until: 08:00,0.1,        !- Field 145
    Until: 09:00,0.34,       !- Field 147
    Until: 10:00,0.6,        !- Field 149
    Until: 11:00,0.63,       !- Field 151
    Until: 12:00,0.72,       !- Field 153
    Until: 13:00,0.79,       !- Field 155
    Until: 14:00,0.83,       !- Field 157
    Until: 15:00,0.61,       !- Field 159
    Until: 16:00,0.65,       !- Field 161
    Until: 18:00,0.1,        !- Field 163
    Until: 19:00,0.19,       !- Field 165
    Until: 20:00,0.25,       !- Field 167
    Until: 22:00,0.22,       !- Field 169
    Until: 23:00,0.12,       !- Field 171
    Until: 24:00,0.09,       !- Field 173
    For: Weekdays,           !- Field 175
    Until: 07:00,0.00,       !- Field 177
    Until: 08:00,0.00,       !- Field 179
    Until: 09:00,0.34,       !- Field 181
    Until: 10:00,0.6,        !- Field 183
    Until: 11:00,0.63,       !- Field 185
    Until: 12:00,0.72,       !- Field 187
    Until: 13:00,0.79,       !- Field 189
    Until: 14:00,0.83,       !- Field 191
    Until: 15:00,0.61,       !- Field 193
    Until: 16:00,0.65,       !- Field 195
    Until: 18:00,0.1,        !- Field 197
    Until: 19:00,0.19,       !- Field 199
    Until: 20:00,0.25,       !- Field 201
    Until: 22:00,0.00,       !- Field 203
    Until: 23:00,0.00,       !- Field 205
    Until: 24:00,0.00,       !- Field 207
    For: WinterDesignDay,    !- Field 209
    Until: 09:00,0.03,       !- Field 211
    Until: 13:00,0.05,       !- Field 213
    Until: 24:00,0.03,       !- Field 215
    For: Saturday,           !- Field 217
    Until: 09:00,0.00,       !- Field 219
    Until: 13:00,0.00,       !- Field 221
    Until: 24:00,0.00,       !- Field 223
    For: Sunday Holidays AllOtherDays, !- Field 225
    Until: 08:00,0.00,       !- Field 227
    Until: 14:00,0.00,       !- Field 229
    Until: 24:00,0.00;       !- Field 231

  Schedule:Compact,
    ALWAYS_ON,               !- Name
    On/Off,                  !- Schedule Type Limits Name
    Through: 12/31,          !- Field 1
    For: AllDays,            !- Field 2
    Until: 24:00,1;          !- Field 3

  Schedule:Compact,
    Exterior_Lgt_ALWAYS_ON,  !- Name
    Fraction,                !- Schedule Type Limits Name
    Through: 12/31,          !- Field 1
    For: AllDays,            !- Field 2
    Until: 24:00,1;          !- Field 3



  Schedule:Compact,
    Exterior_Lgt_189_1,      !- Name
    Fraction,                !- Schedule Type Limits Name
    Through:12/31,           !- Field 1
    For:Weekdays,            !- Field 2
    Until:  9:00,0.5,        !- Field 3
    Until: 21:00,1.0,        !- Field 5
    Until: 24:00,0.5,        !- Field 7
    For:Saturday,            !- Field 9
    Until: 24:00,0.5,        !- Field 10
    For:Sunday Holidays AllOtherDays, !- Field 12
    Until: 24:00,0.5;        !- Field 13

  Schedule:Compact,
    ALWAYS_OFF,              !- Name
    On/Off,                  !- Schedule Type Limits Name
    Through: 12/31,          !- Field 1
    For: AllDays,            !- Field 2
    Until: 24:00,0;          !- Field 3

  Schedule:Compact,
    WORK_EFF_SCH,            !- Name
    Fraction,                !- Schedule Type Limits Name
    Through: 12/31,          !- Field 1
    For: AllDays,            !- Field 2
    Until: 24:00,0;          !- Field 3

  Schedule:Compact,
    AIR_VELO_SCH,            !- Name
    Any Number,              !- Schedule Type Limits Name
    Through: 12/31,          !- Field 1
    For: AllDays,            !- Field 2
    Until: 24:00,0.2;        !- Field 3

  Schedule:Compact,
    CLOTHING_SCH,            !- Name
    Any Number,              !- Schedule Type Limits Name
    Through: 04/30,          !- Field 1
    For: AllDays,            !- Field 2
    Until: 24:00,1.1,        !- Field 3
    Through: 09/30,          !- Field 5
    For: AllDays,            !- Field 6
    Until: 24:00,0.6,        !- Field 7
    Through: 12/31,          !- Field 9
    For: AllDays,            !- Field 10
    Until: 24:00,1.1;        !- Field 11

  Schedule:Compact,
    SHADING_SCH,             !- Name
    Any Number,              !- Schedule Type Limits Name
    Through: 12/31,          !- Field 1
    For: AllDays,            !- Field 2
    Until: 24:00,0;          !- Field 3

  Schedule:Compact,
    PlantOnSched,            !- Name
    Any Number,              !- Schedule Type Limits Name
    Through: 12/31,          !- Field 1
    For: AllDays,            !- Field 2
    Until: 24:00,1;          !- Field 3

  Schedule:Compact,
    FAN_SCH,                 !- Name
    Any Number,              !- Schedule Type Limits Name
    Through: 12/31,          !- Field 1
    For: AllDays,            !- Field 2
    Until: 24:00,1;          !- Field 3

  Schedule:Compact,
    ReheatCoilAvailSched,    !- Name
    Any Number,              !- Schedule Type Limits Name
    Through: 12/31,          !- Field 1
    For: AllDays,            !- Field 2
    Until: 24:00,1;          !- Field 3

  Schedule:Compact,
    CoolingCoilAvailSched,   !- Name
    Any Number,              !- Schedule Type Limits Name
    Through: 12/31,          !- Field 1
    For: AllDays,            !- Field 2
    Until: 24:00,1;          !- Field 3

  Schedule:Compact,
    Humidity Setpoint Schedule,  !- Name
    Humidity,                !- Schedule Type Limits Name
    Through: 12/31,          !- Field 1
    For: AllDays,            !- Field 2
    Until: 24:00,65;         !- Field 3

  Schedule:Compact,
    Dual Zone Control Type Sched,  !- Name
    Control Type,            !- Schedule Type Limits Name
    Through: 12/31,          !- Field 1
    For: AllDays,            !- Field 2
    Until: 24:00,4;          !- Field 3

  Schedule:Compact,
    Seasonal-Reset-Supply-Air-Temp-Sch,  !- Name
    Temperature,             !- Schedule Type Limits Name
    Through: 03/31,          !- Field 1
    For: AllDays,            !- Field 2
    Until: 24:00,13,         !- Field 3
    Through: 09/30,          !- Field 5
    For: AllDays,            !- Field 6
    Until: 24:00,13,         !- Field 7
    Through: 12/31,          !- Field 9
    For: AllDays,            !- Field 10
    Until: 24:00,13;         !- Field 11

  Schedule:Compact,
    VAV-Supply-Air-Temp-Sch, !- Name
    Temperature,             !- Schedule Type Limits Name
    Through: 12/31,          !- Field 1
    For: AllDays,            !- Field 2
    Until: 24:00,12.8;       !- Field 3

  Schedule:Compact,
    CW-Loop-Temp-Schedule,   !- Name
    Temperature,             !- Schedule Type Limits Name
    Through: 12/31,          !- Field 1
    For: AllDays,            !- Field 2
    Until: 24:00,6.7;        !- Field 3

  Schedule:Compact,
    HW-Loop-Temp-Schedule,   !- Name
    Temperature,             !- Schedule Type Limits Name
    Through: 12/31,          !- Field 1
    For: AllDays,            !- Field 2
    Until: 24:00,82;         !- Field 3

  Schedule:Compact,
    Heating-Supply-Air-Temp-Sch,  !- Name
    Temperature,             !- Schedule Type Limits Name
    Through: 12/31,          !- Field 1
    For: AllDays,            !- Field 2
    Until: 24:00,16;         !- Field 3

  Schedule:Compact,
    Kitchen_Exhaust_SCH,     !- Name
    Fraction,                !- Schedule Type Limits Name
    Through: 6/30,           !- Field 1
    For: Weekdays SummerDesignDay WinterDesignDay, !- Field 2
    Until: 08:00,0,          !- Field 3
    Until: 17:00,1.0,        !- Field 5
    Until: 24:00,0,          !- Field 7
    For: WeekEnds Holidays AllOtherDays, !- Field 9
    Until: 24:00,0,          !- Field 10
    Through: 9/1,            !- Field 12
    For: Weekdays SummerDesignDay WinterDesignDay, !- Field 13
    Until: 08:00,0,          !- Field 14
    Until: 17:00,1.0,        !- Field 16
    Until: 21:00,1.0,        !- Field 18
    Until: 24:00,0,          !- Field 20
    For: WeekEnds Holidays AllOtherDays, !- Field 22
    Until: 24:00,0,          !- Field 23
    Through: 12/31,          !- Field 25
    For: Weekdays SummerDesignDay WinterDesignDay, !- Field 26
    Until: 08:00,0,          !- Field 27
    Until: 16:00,1.0,        !- Field 29
    Until: 21:00,1.0,        !- Field 31
    Until: 24:00,0,          !- Field 33
    For: WeekEnds Holidays AllOtherDays, !- Field 35
    Until: 24:00,0;          !- Field 36



  Schedule:Compact,
    Hours_of_operation,      !- Name
    On/Off,                  !- Schedule Type Limits Name
    Through: 12/31,          !- Field 1
    For: Weekdays SummerDesignDay WinterDesignDay, !- Field 2
    Until: 07:00,0,          !- Field 3
    Until: 21:00,1,          !- Field 5
    Until: 24:00,0,          !- Field 7
    For: WeekEnds Holidays AllOtherDays, !- Field 9
    Until: 24:00,0;          !- Field 10


Schedule:Compact,
    HTGSETP_SCH_Yes_Optimum_w_SB,   !-Name
    Temperature,   !-Schedule Type Limits Name
    Through: 12/31,
    For: Weekdays,
    Until: 01:00, 15.6,
    Until: 02:00, 15.6,
    Until: 03:00, 15.6,
    Until: 04:00, 15.6,
    Until: 05:00, 15.6,
    Until: 06:00, 15.6,
    Until: 07:00, 17.8,
    Until: 08:00, 20,
    Until: 09:00, 21,
    Until: 10:00, 21,
    Until: 11:00, 21,
    Until: 12:00, 21,
    Until: 13:00, 20.4444444444444,
    Until: 14:00, 21,
    Until: 15:00, 20.4444444444444,
    Until: 16:00, 21,
    Until: 17:00, 21,
    Until: 18:00, 21,
    Until: 19:00, 21,
    Until: 20:00, 21,
    Until: 21:00, 21,
    Until: 22:00, 15.6,
    Until: 23:00, 15.6,
    Until: 24:00, 15.6,
    For: SummerDesignDay,
    Until: 24:00,15.6,
    For: WinterDesignDay,
    Until: 24:00,21,
    For: WeekEnds Holidays AllOtherDays,
    Until: 24:00,15.6;

  Schedule:Compact,
    HTGSETP_SCH_Yes_Optimum_Original,  !- Name
    Temperature,             !- Schedule Type Limits Name
    Through: 12/31,          !- Field 1
    For: SummerDesignDay,    !- Field 2
    Until: 24:00,15.6,       !- Field 3
    For: WinterDesignDay,    !- Field 5
    Until: 24:00,21,         !- Field 6
    For: Weekdays,           !- Field 8
    Until: 06:00,15.6,       !- Field 9
    Until: 07:00,17.8,       !- Field 11
    Until: 08:00,20.0,       !- Field 13
    Until: 21:00,21,         !- Field 15
    Until: 24:00,15.6,       !- Field 17
    For: WeekEnds Holidays AllOtherDays, !- Field 19
    Until: 24:00,15.6;       !- Field 20

  Schedule:Compact,
    HTGSETP_SCH_Setback,     !- Name
    Temperature,             !- Schedule Type Limits Name
    Through: 12/31,          !- Field 1
    For: SummerDesignDay,    !- Field 2
    Until: 24:00,15.6,       !- Field 3
    For: WinterDesignDay,    !- Field 5
    Until: 24:00,21,         !- Field 6
    For: Weekdays,           !- Field 8
    Until: 09:00,15.6,       !- Field 9
    Until: 21:00,15.6,       !- Field 11
    Until: 24:00,15.6,       !- Field 13
    For: WeekEnds Holidays AllOtherDays, !- Field 15
    Until: 24:00,15.6;       !- Field 16



  Schedule:Compact,
    HTGSETP_SCH_PSZ_AC_5_9,  !- Name
    Temperature,             !- Schedule Type Limits Name
    Through: 12/31,          !- Field 1
    For: SummerDesignDay,    !- Field 2
    Until: 24:00,15.6,       !- Field 3
    For: WinterDesignDay,    !- Field 5
    Until: 24:00,21,         !- Field 6
    For: Weekdays,           !- Field 8
    Until: 06:00,15.6,       !- Field 9
    Until: 07:00,21,         !- Field 11
    Until: 08:00,21,         !- Field 13
    Until: 21:00,21,         !- Field 15
    Until: 24:00,15.6,       !- Field 17
    For: WeekEnds Holidays AllOtherDays, !- Field 19
    Until: 24:00,15.6;       !- Field 20



  Schedule:Compact,
    HTGSETP_SCH_PSZ_AC_4_8,  !- Name
    Temperature,             !- Schedule Type Limits Name
    Through: 12/31,          !- Field 1
    For: SummerDesignDay,    !- Field 2
    Until: 24:00,15.6,       !- Field 3
    For: WinterDesignDay,    !- Field 5
    Until: 24:00,21,         !- Field 6
    For: Weekdays,           !- Field 8
    Until: 06:00,15.6,       !- Field 9
    Until: 07:00,21,         !- Field 11
    Until: 08:00,21,         !- Field 13
    Until: 21:00,21,         !- Field 15
    Until: 24:00,15.6,       !- Field 17
    For: WeekEnds Holidays AllOtherDays, !- Field 19
    Until: 24:00,15.6;       !- Field 20



  Schedule:Compact,
    HTGSETP_SCH_PSZ_AC_3_7,  !- Name
    Temperature,             !- Schedule Type Limits Name
    Through: 12/31,          !- Field 1
    For: SummerDesignDay,    !- Field 2
    Until: 24:00,15.6,       !- Field 3
    For: WinterDesignDay,    !- Field 5
    Until: 24:00,21,         !- Field 6
    For: Weekdays,           !- Field 8
    Until: 06:00,15.6,       !- Field 9
    Until: 07:00,21,         !- Field 11
    Until: 08:00,21,         !- Field 13
    Until: 21:00,21,         !- Field 15
    Until: 24:00,15.6,       !- Field 17
    For: WeekEnds Holidays AllOtherDays, !- Field 19
    Until: 24:00,15.6;       !- Field 20



  Schedule:Compact,
    HTGSETP_SCH_PSZ_AC_2_6,  !- Name
    Temperature,             !- Schedule Type Limits Name
    Through: 12/31,          !- Field 1
    For: SummerDesignDay,    !- Field 2
    Until: 24:00,15.6,       !- Field 3
    For: WinterDesignDay,    !- Field 5
    Until: 24:00,21,         !- Field 6
    For: Weekdays,           !- Field 8
    Until: 06:00,15.6,       !- Field 9
    Until: 07:00,21,         !- Field 11
    Until: 08:00,21,         !- Field 13
    Until: 21:00,21,         !- Field 15
    Until: 24:00,15.6,       !- Field 17
    For: WeekEnds Holidays AllOtherDays, !- Field 19
    Until: 24:00,15.6;       !- Field 20



  Schedule:Compact,
    HTGSETP_SCH_PSZ_AC_1_5,  !- Name
    Temperature,             !- Schedule Type Limits Name
    Through: 12/31,          !- Field 1
    For: SummerDesignDay,    !- Field 2
    Until: 24:00,15.6,       !- Field 3
    For: WinterDesignDay,    !- Field 5
    Until: 24:00,21,         !- Field 6
    For: Weekdays,           !- Field 8
    Until: 06:00,15.6,       !- Field 9
    Until: 07:00,21,         !- Field 11
    Until: 08:00,21,         !- Field 13
    Until: 21:00,21,         !- Field 15
    Until: 24:00,15.6,       !- Field 17
    For: WeekEnds Holidays AllOtherDays, !- Field 19
    Until: 24:00,15.6;       !- Field 20




  Schedule:Compact,
    CLGSETP_SCH_Yes_Optimum_w_SB,   !-Name
    Temperature,   !-Schedule Type Limits Name
    Through: 12/31,
    For: Weekdays,
    Until: 01:00, 29.44,
    Until: 02:00, 29.44,
    Until: 03:00, 29.44,
    Until: 04:00, 29.44,
    Until: 05:00, 29.44,
    Until: 06:00, 29.44,
    Until: 07:00, 27.8,
    Until: 08:00, 25.6,
    Until: 09:00, 24,
    Until: 10:00, 24,
    Until: 11:00, 24,
    Until: 12:00, 24,
    Until: 13:00, 24.5555555555556,
    Until: 14:00, 24,
    Until: 15:00, 24.5555555555556,
    Until: 16:00, 24,
    Until: 17:00, 24,
    Until: 18:00, 24,
    Until: 19:00, 24,
    Until: 20:00, 24,
    Until: 21:00, 24,
    Until: 22:00, 29.44,
    Until: 23:00, 29.44,
    Until: 24:00, 29.44,
    For: SummerDesignDay,
    Until: 24:00,24,
    For: WinterDesignDay,
    Until: 24:00,29.44,
    For: WeekEnds Holidays AllOtherDays,
    Until: 24:00,29.44;
  Schedule:Compact,
    CLGSETP_SCH_Yes_Optimum_Original,  !- Name
    Temperature,             !- Schedule Type Limits Name
    Through: 12/31,          !- Field 1
    For: SummerDesignDay,    !- Field 2
    Until: 24:00,24,         !- Field 3
    For: WinterDesignDay,    !- Field 5
    Until: 24:00,29.44,      !- Field 6
    For: Weekdays,           !- Field 8
    Until: 06:00,29.44,      !- Field 9
    Until: 07:00,27.8,       !- Field 11
    Until: 08:00,25.6,       !- Field 13
    Until: 21:00,24,         !- Field 15
    Until: 24:00,29.44,      !- Field 17
    For: WeekEnds Holidays AllOtherDays, !- Field 19
    Until: 24:00,29.44;      !- Field 20

  Schedule:Compact,
    CLGSETP_SCH_NO_SETBACK,  !- Name
    Temperature,             !- Schedule Type Limits Name
    Through: 12/31,          !- Field 1
    For: SummerDesignDay,    !- Field 2
    Until: 24:00,24,         !- Field 3
    For: WinterDesignDay,    !- Field 5
    Until: 24:00,29.44,      !- Field 6
    For: Weekdays,           !- Field 8
    Until: 06:00,24,         !- Field 9
    Until: 07:00,24,         !- Field 11
    Until: 08:00,24,         !- Field 13
    Until: 21:00,24,         !- Field 15
    Until: 24:00,24,         !- Field 17
    For: WeekEnds Holidays AllOtherDays, !- Field 19
    Until: 24:00,24;         !- Field 20

  Schedule:Compact,
    CLGSETP_SCH_Setup,       !- Name
    Temperature,             !- Schedule Type Limits Name
    Through: 12/31,          !- Field 1
    For: SummerDesignDay,    !- Field 2
    Until: 24:00,24,         !- Field 3
    For: WinterDesignDay,    !- Field 5
    Until: 24:00,29.44,      !- Field 6
    For: Weekdays,           !- Field 8
    Until: 24:00,29.44,      !- Field 9
    For: WeekEnds Holidays AllOtherDays, !- Field 11
    Until: 09:00,29.44,      !- Field 12
    Until: 19:00,29.44,      !- Field 14
    Until: 24:00,29.44;      !- Field 16



  Schedule:Compact,
    CLGSETP_SCH_PSZ_AC_5_9,  !- Name
    Temperature,             !- Schedule Type Limits Name
    Through: 12/31,          !- Field 1
    For: SummerDesignDay,    !- Field 2
    Until: 24:00,24,         !- Field 3
    For: WinterDesignDay,    !- Field 5
    Until: 24:00,29.44,      !- Field 6
    For: Weekdays,           !- Field 8
    Until: 06:00,29.44,      !- Field 9
    Until: 07:00,24,         !- Field 11
    Until: 08:00,24,         !- Field 13
    Until: 21:00,24,         !- Field 15
    Until: 24:00,29.44,      !- Field 17
    For: WeekEnds Holidays AllOtherDays, !- Field 19
    Until: 24:00,29.44;      !- Field 20



  Schedule:Compact,
    CLGSETP_SCH_PSZ_AC_4_8,  !- Name
    Temperature,             !- Schedule Type Limits Name
    Through: 12/31,          !- Field 1
    For: SummerDesignDay,    !- Field 2
    Until: 24:00,24,         !- Field 3
    For: WinterDesignDay,    !- Field 5
    Until: 24:00,29.44,      !- Field 6
    For: Weekdays,           !- Field 8
    Until: 06:00,29.44,      !- Field 9
    Until: 07:00,24,         !- Field 11
    Until: 08:00,24,         !- Field 13
    Until: 21:00,24,         !- Field 15
    Until: 24:00,29.44,      !- Field 17
    For: WeekEnds Holidays AllOtherDays, !- Field 19
    Until: 24:00,29.44;      !- Field 20



  Schedule:Compact,
    CLGSETP_SCH_PSZ_AC_3_7,  !- Name
    Temperature,             !- Schedule Type Limits Name
    Through: 12/31,          !- Field 1
    For: SummerDesignDay,    !- Field 2
    Until: 24:00,24,         !- Field 3
    For: WinterDesignDay,    !- Field 5
    Until: 24:00,29.44,      !- Field 6
    For: Weekdays,           !- Field 8
    Until: 06:00,29.44,      !- Field 9
    Until: 07:00,24,         !- Field 11
    Until: 08:00,24,         !- Field 13
    Until: 21:00,24,         !- Field 15
    Until: 24:00,29.44,      !- Field 17
    For: WeekEnds Holidays AllOtherDays, !- Field 19
    Until: 24:00,29.44;      !- Field 20



  Schedule:Compact,
    CLGSETP_SCH_PSZ_AC_2_6,  !- Name
    Temperature,             !- Schedule Type Limits Name
    Through: 12/31,          !- Field 1
    For: SummerDesignDay,    !- Field 2
    Until: 24:00,24,         !- Field 3
    For: WinterDesignDay,    !- Field 5
    Until: 24:00,29.44,      !- Field 6
    For: Weekdays,           !- Field 8
    Until: 06:00,29.44,      !- Field 9
    Until: 07:00,24,         !- Field 11
    Until: 08:00,24,         !- Field 13
    Until: 21:00,24,         !- Field 15
    Until: 24:00,29.44,      !- Field 17
    For: WeekEnds Holidays AllOtherDays, !- Field 19
    Until: 24:00,29.44;      !- Field 20



  Schedule:Compact,
    CLGSETP_SCH_PSZ_AC_1_5,  !- Name
    Temperature,             !- Schedule Type Limits Name
    Through: 12/31,          !- Field 1
    For: SummerDesignDay,    !- Field 2
    Until: 24:00,24,         !- Field 3
    For: WinterDesignDay,    !- Field 5
    Until: 24:00,29.44,      !- Field 6
    For: Weekdays,           !- Field 8
    Until: 06:00,29.44,      !- Field 9
    Until: 07:00,24,         !- Field 11
    Until: 08:00,24,         !- Field 13
    Until: 21:00,24,         !- Field 15
    Until: 24:00,29.44,      !- Field 17
    For: WeekEnds Holidays AllOtherDays, !- Field 19
    Until: 24:00,29.44;      !- Field 20



  Schedule:Compact,
    MinOA_MotorizedDamper_Sched,  !- Name
    On/Off,                  !- Schedule Type Limits Name
    Through: 12/31,          !- Field 1
    For: Weekdays SummerDesignDay WinterDesignDay, !- Field 2
    Until: 08:00,0,          !- Field 3
    Until: 21:00,1,          !- Field 5
    Until: 24:00,0,          !- Field 7
    For: WeekEnds Holidays AllOtherDays, !- Fiel      d 9
    Until: 24:00,0;          !- Field 10



  Schedule:Compact,
    ACTIVITY_SCH,            !- Name
    Any Number,              !- Schedule Type Limits Name
    Through: 12/31,          !- Field 1
    For: AllDays,            !- Field 2
    Until: 24:00,120;        !- Field 3

  Schedule:Compact,
    Bathrooms_ZN_1_FLR_1 SHW_default Latent fract sched,  !- Name
    Fraction,                !- Schedule Type Limits Name
    Through: 12/31,          !- Field 1
    For: AllDays,            !- Field 2
    Until: 24:00,0.05;       !- Field 3

  Schedule:Compact,
    Bathrooms_ZN_1_FLR_1 SHW_default Sensible fract sched,  !- Name
    Fraction,                !- Schedule Type Limits Name
    Through: 12/31,          !- Field 1
    For: AllDays,            !- Field 2
    Until: 24:00,0.2;        !- Field 3



  Schedule:Compact,
    Bathrooms_ZN_1_FLR_1 SHW_default Temp Sched,  !- Name
    Temperature,             !- Schedule Type Limits Name
    Through: 12/31,          !- Field 1
    For: AllDays,            !- Field 2
    Until: 24:00,60;         !- Field 3

  Schedule:Compact,
    Bathrooms_ZN_1_FLR_1 SHW_default Hot Supply Temp Sched,  !- Name
    Temperature,             !- Schedule Type Limits Name
    Through: 12/31,          !- Field 1
    For: AllDays,            !- Field 2
    Until: 24:00,55;         !- Field 3

  Schedule:Compact,
    Bathrooms_ZN_1_FLR_2 SHW_default Latent fract sched,  !- Name
    Fraction,                !- Schedule Type Limits Name
    Through: 12/31,          !- Field 1
    For: AllDays,            !- Field 2
    Until: 24:00,0.05;       !- Field 3

  Schedule:Compact,
    Bathrooms_ZN_1_FLR_2 SHW_default Sensible fract sched,  !- Name
    Fraction,                !- Schedule Type Limits Name
    Through: 12/31,          !- Field 1
    For: AllDays,            !- Field 2
    Until: 24:00,0.2;        !- Field 3



  Schedule:Compact,
    Bathrooms_ZN_1_FLR_2 SHW_default Temp Sched,  !- Name
    Temperature,             !- Schedule Type Limits Name
    Through: 12/31,          !- Field 1
    For: AllDays,            !- Field 2
    Until: 24:00,60;         !- Field 3

  Schedule:Compact,
    Bathrooms_ZN_1_FLR_2 SHW_default Hot Supply Temp Sched,  !- Name
    Temperature,             !- Schedule Type Limits Name
    Through: 12/31,          !- Field 1
    For: AllDays,            !- Field 2
    Until: 24:00,55;         !- Field 3

  Schedule:Compact,
    Kitchen_ZN_1_FLR_1 SHW_default Latent fract sched,  !- Name
    Fraction,                !- Schedule Type Limits Name
    Through: 12/31,          !- Field 1
    For: AllDays,            !- Field 2
    Until: 24:00,0.05;       !- Field 3

  Schedule:Compact,
    Kitchen_ZN_1_FLR_1 SHW_default Sensible fract sched,  !- Name
    Fraction,                !- Schedule Type Limits Name
    Through: 12/31,          !- Field 1
    For: AllDays,            !- Field 2
    Until: 24:00,0.2;        !- Field 3



  Schedule:Compact,
    Kitchen_ZN_1_FLR_1 SHW_default Temp Sched,  !- Name
    Temperature,             !- Schedule Type Limits Name
    Through: 12/31,          !- Field 1
    For: AllDays,            !- Field 2
    Until: 24:00,60;         !- Field 3

  Schedule:Compact,
    Kitchen_ZN_1_FLR_1 SHW_default Hot Supply Temp Sched,  !- Name
    Temperature,             !- Schedule Type Limits Name
    Through: 12/31,          !- Field 1
    For: AllDays,            !- Field 2
    Until: 24:00,55;         !- Field 3

  Schedule:Compact,
    Kitchen_ZN_1_FLR_1_Case:1_WALKINFREEZER_CaseDefrost2aDaySched,  !- Name
    ON/OFF,                  !- Schedule Type Limits Name
    Through: 12/31,          !- Field 1
    For:AllDays,             !- Field 2
    Interpolate:Average,         !- Field 3
    Until: 11:00,0,          !- Field 4
    Until: 11:20,1,          !- Field 6
    Until: 23:00,0,          !- Field 8
    Until: 23:20,1,          !- Field 10
    Until: 24:00,0;          !- Field 12

  Schedule:Compact,
    Kitchen_ZN_1_FLR_1_Case:1_WALKINFREEZER_CaseDripDown2aDaySched,  !- Name
    ON/OFF,                  !- Schedule Type Limits Name
    Through: 12/31,          !- Field 1
    For:AllDays,             !- Field 2
    Interpolate:Average,         !- Field 3
    Until: 11:00,0,          !- Field 4
    Until: 11:30,1,          !- Field 6
    Until: 23:00,0,          !- Field 8
    Until: 23:30,1,          !- Field 10
    Until: 24:00,0;          !- Field 12

  Schedule:Compact,
    Kitchen_ZN_1_FLR_1_Case:1_WALKINFREEZER_WalkInStockingSched,  !- Name
    Any Number,              !- Schedule Type Limits Name
    Through: 12/31,          !- Field 1
    For: Tuesday Friday,     !- Field 2
    Until: 4:00,0.0,         !- Field 3
    Until: 5:00,725.0,       !- Field 5
    Until: 6:00,417.0,       !- Field 7
    Until: 7:00,290.0,       !- Field 9
    Until: 24:00,0.0,        !- Field 11
    For: AllOtherDays,       !- Field 13
    Until: 4:00,0.0,         !- Field 14
    Until: 5:00,125.0,       !- Field 16
    Until: 6:00,117.0,       !- Field 18
    Until: 7:00,90.0,        !- Field 20
    Until: 19:00,0.0,        !- Field 22
    Until: 20:00,125.0,      !- Field 24
    Until: 21:00,117.0,      !- Field 26
    Until: 22:00,90.0,       !- Field 28
    Until: 24:00,0.0;        !- Field 30

  Schedule:Compact,
    Kitchen_ZN_1_FLR_1_Case:1_WALKINFREEZER_CaseCreditReduxSched,  !- Name
    Fraction,                !- Schedule Type Limits Name
    Through: 12/31,          !- Field 1
    For:AllDays,             !- Field 2
    Interpolate:No,          !- Field 3
    Until: 7:00,0.2,         !- Field 4
    Until: 21:00,0.4,        !- Field 6
    Until: 24:00,0.2;        !- Field 8

  Schedule:Compact,
    Kitchen_ZN_1_FLR_1_Case:2_SELFCONTAINEDDISPLAYCASE_CaseStockingSched,  !- Name
    Any Number,              !- Schedule Type Limits Name
    Through: 12/31,          !- Field 1
    For:AllDays,             !- Field 2
    Until: 6:00,0.0,         !- Field 3
    Until: 7:00,50.0,        !- Field 5
    Until: 9:00,70.0,        !- Field 7
    Until: 10:00,80.0,       !- Field 9
    Until: 11:00,70.0,       !- Field 11
    Until: 13:00,50.0,       !- Field 13
    Until: 14:00,80.0,       !- Field 15
    Until: 15:00,90.0,       !- Field 17
    Until: 16:00,80.0,       !- Field 19
    Until: 24:00,0.0;        !- Field 21



  Schedule:Compact,
    SHWSys1-Loop-Temp-Schedule,  !- Name
    Temperature,             !- Schedule Type Limits Name
    Through: 12/31,          !- Field 1
    For: AllDays,            !- Field 2
    Until: 24:00,60.0;       !- Field 3



  Schedule:Compact,
    SHWSys1 Water Heater Setpoint Temperature Schedule Name,  !- Name
    Temperature,             !- Schedule Type Limits Name
    Through: 12/31,          !- Field 1
    For: AllDays,            !- Field 2
    Until: 24:00,60.0;       !- Field 3

  Schedule:Compact,
    SHWSys1 Water Heater Ambient Temperature Schedule Name,  !- Name
    Temperature,             !- Schedule Type Limits Name
    Through: 12/31,          !- Field 1
    For: AllDays,            !- Field 2
    Until: 24:00,22.0;       !- Field 3

  Schedule:Compact,
    walkin_occ_lght_SCH,     !- Name
    Fraction,                !- Schedule Type Limits Name
    Through: 6/30,           !- Field 1
    For: Weekdays,           !- Field 2
    Until: 7:00,0.1773,      !- Field 3
    Until: 21:00,0.468,      !- Field 5
    Until: 24:00,0.1773,     !- Field 7
    For: SummerDesignDay,    !- Field 9
    Until: 24:00,1,          !- Field 10
    For: WinterDesignDay,    !- Field 12
    Until: 24:00,0,          !- Field 13
    For: WeekEnds Holidays AllOtherDays, !- Field 15
    Until: 24:00,0.1773,     !- Field 16
    Through: 9/1,            !- Field 18
    For: Weekdays,           !- Field 19
    Until: 8:00,0.1773,      !- Field 20
    Until: 20:00,0.26,       !- Field 22
    Until: 24:00,0.1773,     !- Field 24
    For: SummerDesignDay,    !- Field 26
    Until: 24:00,1,          !- Field 27
    For: WinterDesignDay,    !- Field 29
    Until: 24:00,0,          !- Field 30
    For: WeekEnds Holidays AllOtherDays, !- Field 32
    Until: 24:00,0.1773,     !- Field 33
    Through: 12/31,          !- Field 35
    For: Weekdays,           !- Field 36
    Until: 7:00,0.1773,      !- Field 37
    Until: 21:00,0.468,      !- Field 39
    Until: 24:00,0.1773,     !- Field 41
    For: SummerDesignDay,    !- Field 43
    Until: 24:00,1,          !- Field 44
    For: WinterDesignDay,    !- Field 46
    Until: 24:00,0,          !- Field 47
    For: WeekEnds Holidays AllOtherDays, !- Field 49
    Until: 24:00,0.1773;     !- Field 50



  Schedule:Compact,
    Offices_ZN_1_FLR_1_MDP_Sch,   !-Name
    Fraction,   !-Schedule Type Limits Name
    Through: 6/30,
    For: Weekdays,
    Until: 01:00, 0.3,
    Until: 02:00, 0.3,
    Until: 03:00, 0.3,
    Until: 04:00, 0.3,
    Until: 05:00, 0.3,
    Until: 06:00, 0.3,
    Until: 07:00, 0.3,
    Until: 08:00, 0.3,
    Until: 09:00, 0.3,
    Until: 10:00, 0.3,
    Until: 11:00, 0.3,
    Until: 12:00, 0.3,
    Until: 13:00, 0,
    Until: 14:00, 0.3,
    Until: 15:00, 0,
    Until: 16:00, 0.3,
    Until: 17:00, 0.3,
    Until: 18:00, 0.3,
    Until: 19:00, 0.3,
    Until: 20:00, 0.3,
    Until: 21:00, 0.3,
    Until: 22:00, 0.3,
    Until: 23:00, 0.3,
    Until: 24:00, 0.3,
    For: AllOtherDays,
    Until: 24:00,
    0.3,
    Through: 9/1,
    For: Weekdays,
    Until: 01:00, 0.3,
    Until: 02:00, 0.3,
    Until: 03:00, 0.3,
    Until: 04:00, 0.3,
    Until: 05:00, 0.3,
    Until: 06:00, 0.3,
    Until: 07:00, 0.3,
    Until: 08:00, 0.3,
    Until: 09:00, 0.3,
    Until: 10:00, 0.3,
    Until: 11:00, 0.3,
    Until: 12:00, 0,
    Until: 13:00, 0.3,
    Until: 14:00, 0.3,
    Until: 15:00, 0,
    Until: 16:00, 0.3,
    Until: 17:00, 0.3,
    Until: 18:00, 0.3,
    Until: 19:00, 0.3,
    Until: 20:00, 0.3,
    Until: 21:00, 0.3,
[...]
    ,                        !- Water-Cooled Condenser Maximum Flow Rate {m3/s}
    ,                        !- Water-Cooled Condenser Maximum Water Outlet Temperature {C}
    ,                        !- Water-Cooled Condenser Minimum Water Inlet Temperature {C}
    ,                        !- Evaporative Condenser Availability Schedule Name
    ,                        !- Evaporative Condenser Effectiveness {dimensionless}
    ,                        !- Evaporative Condenser Air Flow Rate {m3/s}
    ,                        !- Basin Heater Capacity {W/K}
    ,                        !- Basin Heater Setpoint Temperature {C}
    ,                        !- Design Evaporative Condenser Water Pump Power {W}
    ,                        !- Evaporative Water Supply Tank Name
    RACK1_condenserInlet,    !- Condenser Air Inlet Node Name
    LowTempRefrigeration,  !- End-Use Subcategory
    RACK1CaseList;           !- Refrigeration Case Name or WalkIn Name or CaseAndWalkInList Name

  Refrigeration:CaseAndWalkInList,
    RACK1CaseList,           !- Name
    Kitchen_ZN_1_FLR_1_Case:1_WALKINFREEZER;  !- Case or WalkIn 1 Name

  Refrigeration:CompressorRack,
    RACK2,                   !- Name
    ZONE,                    !- Heat Rejection Location
    3,                  !- Design Compressor Rack COP {W/W}
    RACK2_RackCOPfTCurve,    !- Compressor Rack COP Function of Temperature Curve Name
    750.0000,                !- Design Condenser Fan Power {W}
    ,                        !- Condenser Fan Power Function of Temperature Curve Name
    AIRCOOLED,               !- Condenser Type
    ,                        !- Water-Cooled Condenser Inlet Node Name
    ,                        !- Water-Cooled Condenser Outlet Node Name
    ,                        !- Water-Cooled Loop Flow Type
    ,                        !- Water-Cooled Condenser Outlet Temperature Schedule Name
    ,                        !- Water-Cooled Condenser Design Flow Rate {m3/s}
    ,                        !- Water-Cooled Condenser Maximum Flow Rate {m3/s}
    ,                        !- Water-Cooled Condenser Maximum Water Outlet Temperature {C}
    ,                        !- Water-Cooled Condenser Minimum Water Inlet Temperature {C}
    ,                        !- Evaporative Condenser Availability Schedule Name
    ,                        !- Evaporative Condenser Effectiveness {dimensionless}
    ,                        !- Evaporative Condenser Air Flow Rate {m3/s}
    ,                        !- Basin Heater Capacity {W/K}
    ,                        !- Basin Heater Setpoint Temperature {C}
    ,                        !- Design Evaporative Condenser Water Pump Power {W}
    ,                        !- Evaporative Water Supply Tank Name
    RACK2_condenserInlet,    !- Condenser Air Inlet Node Name
    MedTempRefrigeration,  !- End-Use Subcategory
    RACK2CaseList;           !- Refrigeration Case Name or WalkIn Name or CaseAndWalkInList Name

  Refrigeration:CaseAndWalkInList,
    RACK2CaseList,           !- Name
    Kitchen_ZN_1_FLR_1_Case:2_SELFCONTAINEDDISPLAYCASE;  !- Case or WalkIn 1 Name

-   ===========  ALL OBJECTS IN CLASS: CURVE:QUADRATIC ===========

  Curve:Quadratic,
    RACK1_RackCOPfTCurve,    !- Name
    1.7603,                  !- Coefficient1 Constant
    -0.0377,                 !- Coefficient2 x
    0.0004,                  !- Coefficient3 x**2
    10.0000,                 !- Minimum Value of x
    35.0000;                 !- Maximum Value of x

  Curve:Quadratic,
    RACK1_RackCondFanCurve2, !- Name
    0.0000,                  !- Coefficient1 Constant
    0.0286,                  !- Coefficient2 x
    0.0000,                  !- Coefficient3 x**2
    0.0000,                  !- Minimum Value of x
    35.0000;                 !- Maximum Value of x

  Curve:Quadratic,
    RACK2_RackCOPfTCurve,    !- Name
    1.0000,                  !- Coefficient1 Constant
    0.0000,                  !- Coefficient2 x
    0.0000,                  !- Coefficient3 x**2
    0.0000,                  !- Minimum Value of x
    50.0000;                 !- Maximum Value of x

!-   ===========  ALL OBJECTS IN CLASS: CURVE:CUBIC ===========

  Curve:Cubic,
    Kitchen_ZN_1_FLR_1_Case:1_WALKINFREEZERSingleShelfHorizontal_LatentEnergyMult,  !- Name
    0.0236,                  !- Coefficient1 Constant
    0.0006,                  !- Coefficient2 x
    0.0000,                  !- Coefficient3 x**2
    0.0000,                  !- Coefficient4 x**3
    -35.0,                   !- Minimum Value of x
    20.0;                    !- Maximum Value of x

  Curve:Cubic,
    Kitchen_ZN_1_FLR_1_Case:2_SELFCONTAINEDDISPLAYCASEMultiShelfVertical_LatentEnergyMult,  !- Name
    0.026526281,             !- Coefficient1 Constant
    0.001078032,             !- Coefficient2 x
    0.0000602558,            !- Coefficient3 x**2
    0.00000123732,           !- Coefficient4 x**3
    -35.0,                   !- Minimum Value of x
    20.0;                    !- Maximum Value of x

Curve:Biquadratic,
    AC_2004_CAPFT,  		!- Name
    1.0433811,                  !- Coefficient1 Constant
    0.0407077,                  !- Coefficient2 x
    0.0004506,                  !- Coefficient3 x**2
    -0.0041514,                 !- Coefficient4 y
    -0.0000886,                 !- Coefficient5 y**2
    -0.0003467,                 !- Coefficient6 x*y
    5.0000,                  	!- Minimum Value of x
    10.0000,                 	!- Maximum Value of x
    12.7,                 	!- Minimum Value of y
    51.67;                 	!- Maximum Value of y

Curve:Biquadratic,
    AC_2004_EIRFT,  		!- Name
    0.5961915,                  !- Coefficient1 Constant
    -0.0099496,                 !- Coefficient2 x
    0.0007888,                  !- Coefficient3 x**2
    0.0004506,                  !- Coefficient4 y
    0.0004875,                  !- Coefficient5 y**2
    -0.0007623,                	!- Coefficient6 x*y
    5.0000,                  	!- Minimum Value of x
    10.0000,                 	!- Maximum Value of x
    12.7,                 	!- Minimum Value of y
    51.67;                 	!- Maximum Value of y

Curve:Quadratic,
    AC_GT150_2004_EIRFPLR,	        !- Name
    0.1410,                  !- Coefficient1 Constant
    0.6550,                  !- Coefficient2 x
    0.2030,                  !- Coefficient3 x**2
    0.0000,                  !- Minimum Value of x
    1.0000;                  !- Maximum Value of x

!-   ===========  ALL OBJECTS IN CLASS: CONTROLLER:MECHANICALVENTILATION ===========
  Controller:MechanicalVentilation,
    VAV_POD_1_MultiZone,      !- Name
    Always_On,                !- Availability Schedule Name

    No,                     !- Demand Controlled Ventilation
    VentilationRateProcedure,!- System Outdoor Air Method
    ,                        !- Zone Maximum Outdoor Air Fraction {dimensionless}
    Corner_Class_1_Pod_1_ZN_1_FLR_1,   		!- Zone 1 Name
    Design_Spec_OA_Classroom,  			!- Design Specification Outdoor Air Object Name
    Design_Spec_ZAD_1,  			!- Design Specification Zone Air Distribution Object Name
    Corner_Class_1_Pod_1_ZN_1_FLR_2,  	 	!- Zone 2 Name
    Design_Spec_OA_Classroom, 		 	!- Design Specification Outdoor Air Object Name
    Design_Spec_ZAD_1,  			!- Design Specification Zone Air Distribution Object Name
    Mult_Class_1_Pod_1_ZN_1_FLR_1, 	 	!- Zone 3 Name
    Design_Spec_OA_Classroom, 	 		!- Design Specification Outdoor Air Object Name
    Design_Spec_ZAD_1, 	 			!- Design Specification Zone Air Distribution Object Name
    Mult_Class_1_Pod_1_ZN_1_FLR_2,  		!- Zone 4 Name
    Design_Spec_OA_Classroom, 	 		!- Design Specification Outdoor Air Object Name
    Design_Spec_ZAD_1, 	 			!- Design Specification Zone Air Distribution Object Name
    Corridor_Pod_1_ZN_1_FLR_1,			!- Zone 5 Name
    Design_Spec_OA_Corridor, 	 		!- Design Specification Outdoor Air Object Name
    Design_Spec_ZAD_1, 	 			!- Design Specification Zone Air Distribution Object Name
    Corridor_Pod_1_ZN_1_FLR_2, 	  		!- Zone 1 Name
    Design_Spec_OA_Corridor, 	 		!- Design Specification Outdoor Air Object Name
    Design_Spec_ZAD_1, 	 			!- Design Specification Zone Air Distribution Object Name
    Corner_Class_2_Pod_1_ZN_1_FLR_1,  	 	!- Zone 2 Name
    Design_Spec_OA_Classroom,  			!- Design Specification Outdoor Air Object Name
    Design_Spec_ZAD_1,  			!- Design Specification Zone Air Distribution Object Name
    Corner_Class_2_Pod_1_ZN_1_FLR_2,   		!- Zone 3 Name
    Design_Spec_OA_Classroom,  			!- Design Specification Outdoor Air Object Name
    Design_Spec_ZAD_1,  			!- Design Specification Zone Air Distribution Object Name
    Mult_Class_2_Pod_1_ZN_1_FLR_1,   		!- Zone 4 Name
    Design_Spec_OA_Classroom,  			!- Design Specification Outdoor Air Object Name
    Design_Spec_ZAD_1,  			!- Design Specification Zone Air Distribution Object Name
    Mult_Class_2_Pod_1_ZN_1_FLR_2,   		!- Zone 5 Name
    Design_Spec_OA_Classroom,  			!- Design Specification Outdoor Air Object Name
    Design_Spec_ZAD_1;  			!- Design Specification Zone Air Distribution Object Name
  DesignSpecification:ZoneAirDistribution,
    Design_Spec_ZAD_1,       !- Name
    1,                       !- Zone Air Distribution Effectiveness in Cooling Mode {dimensionless}
    1,                       !- Zone Air Distribution Effectiveness in Heating Mode {dimensionless}
    ;                        !- Zone Air Distribution Effectiveness Schedule Name

  DesignSpecification:OutdoorAir,
    Design_Spec_OA_Classroom,!- Name
    Sum,                     !- Outdoor Air Method
    0,  !- Outdoor Air Flow per Person {m3/s-person}
    0.002666833;  !- Outdoor Air Flow per Zone Floor Area {m3/s-m2}

  DesignSpecification:OutdoorAir,
    Design_Spec_OA_Corridor, !- Name
    Sum,                     !- Outdoor Air Method
    0.00000001,              !- Outdoor Air Flow per Person {m3/s-person}
    0.000507968; !- Outdoor Air Flow per Zone Floor Area {m3/s-m2}

  Controller:MechanicalVentilation,
    VAV_POD_2_MultiZone,      !- Name
    Always_On,                !- Availability Schedule Name

    No,                     !- Demand Controlled Ventilation
    VentilationRateProcedure,!- System Outdoor Air Method
    ,                        !- Zone Maximum Outdoor Air Fraction {dimensionless}
    Corner_Class_1_Pod_2_ZN_1_FLR_1,   		!- Zone 1 Name
    Design_Spec_OA_Classroom,  			!- Design Specification Outdoor Air Object Name
    Design_Spec_ZAD_1,  			!- Design Specification Zone Air Distribution Object Name
    Corner_Class_1_Pod_2_ZN_1_FLR_2,   		!- Zone 2 Name
    Design_Spec_OA_Classroom,  			!- Design Specification Outdoor Air Object Name
    Design_Spec_ZAD_1,  			!- Design Specification Zone Air Distribution Object Name
    Mult_Class_1_Pod_2_ZN_1_FLR_1,   		!- Zone 3 Name
    Design_Spec_OA_Classroom,  			!- Design Specification Outdoor Air Object Name
    Design_Spec_ZAD_1,  			!- Design Specification Zone Air Distribution Object Name
    Mult_Class_1_Pod_2_ZN_1_FLR_2,   		!- Zone 4 Name
    Design_Spec_OA_Classroom,  			!- Design Specification Outdoor Air Object Name
    Design_Spec_ZAD_1,  			!- Design Specification Zone Air Distribution Object Name
    Corridor_Pod_2_ZN_1_FLR_1,			!- Zone 5 Name
    Design_Spec_OA_Corridor,  			!- Design Specification Outdoor Air Object Name
    Design_Spec_ZAD_1,  			!- Design Specification Zone Air Distribution Object Name
    Corridor_Pod_2_ZN_1_FLR_2,   		!- Zone 1 Name
    Design_Spec_OA_Corridor,  			!- Design Specification Outdoor Air Object Name
    Design_Spec_ZAD_1,  			!- Design Specification Zone Air Distribution Object Name
    Corner_Class_2_Pod_2_ZN_1_FLR_1,   		!- Zone 2 Name
    Design_Spec_OA_Classroom,  			!- Design Specification Outdoor Air Object Name
    Design_Spec_ZAD_1,  			!- Design Specification Zone Air Distribution Object Name
    Corner_Class_2_Pod_2_ZN_1_FLR_2,   		!- Zone 3 Name
    Design_Spec_OA_Classroom,  			!- Design Specification Outdoor Air Object Name
    Design_Spec_ZAD_1,  			!- Design Specification Zone Air Distribution Object Name
    Mult_Class_2_Pod_2_ZN_1_FLR_1,   		!- Zone 4 Name
    Design_Spec_OA_Classroom,  			!- Design Specification Outdoor Air Object Name
    Design_Spec_ZAD_1,  			!- Design Specification Zone Air Distribution Object Name
    Mult_Class_2_Pod_2_ZN_1_FLR_2,   		!- Zone 5 Name
    Design_Spec_OA_Classroom,  			!- Design Specification Outdoor Air Object Name
    Design_Spec_ZAD_1;  			!- Design Specification Zone Air Distribution Object Name
  Controller:MechanicalVentilation,
    VAV_POD_3_MultiZone,      !- Name
    Always_On,                !- Availability Schedule Name

    No,                     !- Demand Controlled Ventilation
    VentilationRateProcedure,!- System Outdoor Air Method
    ,                        !- Zone Maximum Outdoor Air Fraction {dimensionless}
    Corner_Class_1_Pod_3_ZN_1_FLR_1,   			!- Zone 1 Name
    Design_Spec_OA_Classroom, 				!- Design Specification Outdoor Air Object Name
    Design_Spec_ZAD_1,  				!- Design Specification Zone Air Distribution Object Name
    Corner_Class_1_Pod_3_ZN_1_FLR_2,   			!- Zone 2 Name
    Design_Spec_OA_Classroom,  				!- Design Specification Outdoor Air Object Name
    Design_Spec_ZAD_1,  				!- Design Specification Zone Air Distribution Object Name
    Mult_Class_1_Pod_3_ZN_1_FLR_1,   			!- Zone 3 Name
    Design_Spec_OA_Classroom,  				!- Design Specification Outdoor Air Object Name
    Design_Spec_ZAD_1,  				!- Design Specification Zone Air Distribution Object Name
    Mult_Class_1_Pod_3_ZN_1_FLR_2,   			!- Zone 4 Name
    Design_Spec_OA_Classroom,  				!- Design Specification Outdoor Air Object Name
    Design_Spec_ZAD_1,  				!- Design Specification Zone Air Distribution Object Name
    Corridor_Pod_3_ZN_1_FLR_1,				!- Zone 5 Name
    Design_Spec_OA_Corridor,  				!- Design Specification Outdoor Air Object Name
    Design_Spec_ZAD_1,  				!- Design Specification Zone Air Distribution Object Name
    Corridor_Pod_3_ZN_1_FLR_2,   			!- Zone 1 Name
    Design_Spec_OA_Corridor,  				!- Design Specification Outdoor Air Object Name
    Design_Spec_ZAD_1,  				!- Design Specification Zone Air Distribution Object Name
    Corner_Class_2_Pod_3_ZN_1_FLR_1,   			!- Zone 2 Name
    Design_Spec_OA_Classroom,  				!- Design Specification Outdoor Air Object Name
    Design_Spec_ZAD_1,  				!- Design Specification Zone Air Distribution Object Name
    Corner_Class_2_Pod_3_ZN_1_FLR_2,   			!- Zone 3 Name
    Design_Spec_OA_Classroom,  				!- Design Specification Outdoor Air Object Name
    Design_Spec_ZAD_1,  				!- Design Specification Zone Air Distribution Object Name
    Mult_Class_2_Pod_3_ZN_1_FLR_1,   			!- Zone 4 Name
    Design_Spec_OA_Classroom,  				!- Design Specification Outdoor Air Object Name
    Design_Spec_ZAD_1,  				!- Design Specification Zone Air Distribution Object Name
    Mult_Class_2_Pod_3_ZN_1_FLR_2,   			!- Zone 5 Name
    Design_Spec_OA_Classroom,  				!- Design Specification Outdoor Air Object Name
    Design_Spec_ZAD_1;  				!- Design Specification Zone Air Distribution Object Name
  Controller:MechanicalVentilation,
    VAV_OTHER_MultiZone,      !- Name
    Always_On,                !- Availability Schedule Name

    Yes,                     !- Demand Controlled Ventilation
    VentilationRateProcedure,!- System Outdoor Air Method
    ,                        !- Zone Maximum Outdoor Air Fraction {dimensionless}
    Main_Corridor_ZN_1_FLR_1, 				!- Zone 1 Name
    Design_Spec_OA_Corridor,  				!- Design Specification Outdoor Air Object Name
    Design_Spec_ZAD_1,  				!- Design Specification Zone Air Distribution Object Name
    Main_Corridor_ZN_1_FLR_2, 				!- Zone 2 Name
    Design_Spec_OA_Corridor,  				!- Design Specification Outdoor Air Object Name
    Design_Spec_ZAD_1,  				!- Design Specification Zone Air Distribution Object Name
    Lobby_ZN_1_FLR_1,        				!- Zone 3 Name
    Design_Spec_OA_Lobby,  				!- Design Specification Outdoor Air Object Name
    Design_Spec_ZAD_1,  				!- Design Specification Zone Air Distribution Object Name
    Lobby_ZN_1_FLR_2,         				!- Zone 4 Name
    Design_Spec_OA_Lobby,  				!- Design Specification Outdoor Air Object Name
    Design_Spec_ZAD_1,  				!- Design Specification Zone Air Distribution Object Name
    Bathrooms_ZN_1_FLR_1,     				!- Zone 5 Name
    Design_Spec_OA_0,  					!- Design Specification Outdoor Air Object Name
    Design_Spec_ZAD_1,  				!- Design Specification Zone Air Distribution Object Name
    Bathrooms_ZN_1_FLR_2,     				!- Zone 6 Name
    Design_Spec_OA_0,  					!- Design Specification Outdoor Air Object Name
    Design_Spec_ZAD_1,  				!- Design Specification Zone Air Distribution Object Name
    Offices_ZN_1_FLR_1,       				!- Zone 7 Name
    Design_Spec_OA_Office,  				!- Design Specification Outdoor Air Object Name
    Design_Spec_ZAD_1,  				!- Design Specification Zone Air Distribution Object Name
    Offices_ZN_1_FLR_2,       				!- Zone 7 Name
    Design_Spec_OA_Office,  				!- Design Specification Outdoor Air Object Name
    Design_Spec_ZAD_1,  				!- Design Specification Zone Air Distribution Object Name
    Library_Media_Center_ZN_1_FLR_2,       		!- Zone 6 Name
    Design_Spec_OA_Library,  				!- Design Specification Outdoor Air Object Name
    Design_Spec_ZAD_1,  				!- Design Specification Zone Air Distribution Object Name
    Mech_ZN_1_FLR_1,          				!- Zone 7 Name
    Design_Spec_OA_0,  					!- Design Specification Outdoor Air Object Name
    Design_Spec_ZAD_1,  				!- Design Specification Zone Air Distribution Object Name
    Mech_ZN_1_FLR_2,          				!- Zone 7 Name
    Design_Spec_OA_0,  					!- Design Specification Outdoor Air Object Name
    Design_Spec_ZAD_1;  				!- Design Specification Zone Air Distribution Object Name
  DesignSpecification:OutdoorAir,
    Design_Spec_OA_Lobby,    !- Name
    Sum,                     !- Outdoor Air Method
    0.00000001,              !- Outdoor Air Flow per Person {m3/s-person}
    0.000507968;    !- Outdoor Air Flow per Zone Floor Area {m3/s-m2}

  DesignSpecification:OutdoorAir,
    Design_Spec_OA_0,        !- Name
    Sum,                     !- Outdoor Air Method
    0.00000001,              !- Outdoor Air Flow per Person {m3/s-person}
    ;                        !- Outdoor Air Flow per Zone Floor Area {m3/s-m2}

  DesignSpecification:OutdoorAir,
    Design_Spec_OA_Office,   !- Name
    Sum,                     !- Outdoor Air Method
    0.00000001,              !- Outdoor Air Flow per Person {m3/s-person}
    0.000507968;   !- Outdoor Air Flow per Zone Floor Area {m3/s-m2}

  DesignSpecification:OutdoorAir,
    Design_Spec_OA_Library,  !- Name
    Sum,                     !- Outdoor Air Method
    0.00000001,              !- Outdoor Air Flow per Person {m3/s-person}
    0.000761952;  !- Outdoor Air Flow per Zone Floor Area {m3/s-m2}

  ElectricLoadCenter:Transformer,
    Transformer 1,           !- Name
    Always_On,               !- Availability Schedule Name
    PowerInFromGrid,         !- Transformer Usage
    ,                        !- Zone Name
    ,                        !- Radiative Fraction
    225000,  !- Rated Capacity {VA}
    3,                       !- Phase
    Aluminum,                !- Conductor Material
    150,                     !- Full Load Temperature Rise {C}
    0.1,                     !- Fraction of Eddy Current Losses
    NominalEfficiency,       !- Performance Input Method
    ,                        !- Rated No Load Loss {W}
    ,                        !- Rated Load Loss {W}
    0.974,  !- Nameplate Efficiency
    0.35,                    !- Per Unit Load for Nameplate Efficiency
    75,                      !- Reference Temperature for Nameplate Efficiency {C}
    ,                        !- Per Unit Load for Maximum Efficiency
    Yes,                     !- Consider Transformer Loss for Utility Cost
    Wired_LTG_Electricity,   !- Meter 1 Name
    Wired_INT_EQUIP;         !- Meter 2 Name
