Version,9.0;
!-   ===========  ALL OBJECTS IN CLASS: SIMULATIONCONTROL ===========

  SimulationControl,
    Yes,                     !- Do Zone Sizing Calculation
    Yes,                     !- Do System Sizing Calculation
    Yes,                     !- Do Plant Sizing Calculation
    No,         !- Run Simulation for Sizing Periods
    YES;                      !- Run Simulation for Weather File Run Periods

!-   ===========  ALL OBJECTS IN CLASS: BUILDING ===========

  Building,
    OfficeSmall,            !- Name
{%- if (Orientation == "North" and ZoneType == "Front") %}
    180.00,                  !- North Axis {deg}
{% elif (Orientation == "East" and ZoneType == "Front") %}
    -90,
{% elif (Orientation == "West" and ZoneType == "Front") %}
    90.00,
{% else %}
    0.00,
{%- endif %}
    City,                    !- Terrain
    0.0400,                  !- Loads Convergence Tolerance Value
    0.2000,                  !- Temperature Convergence Tolerance Value {deltaC}
    FullInteriorAndExterior, !- Solar Distribution
    25,                      !- Maximum Number of Warmup Days
    6;                       !- Minimum Number of Warmup Days

!-   ===========  ALL OBJECTS IN CLASS: SHADOWCALCULATION ===========

  ShadowCalculation,
    AverageOverDaysInFrequency,  !- Calculation Method
    30,                      !- Calculation Frequency
    15000;                   !- Maximum Figures in Shadow Overlap Calculations

!-   ===========  ALL OBJECTS IN CLASS: SURFACECONVECTIONALGORITHM:INSIDE ===========

  SurfaceConvectionAlgorithm:Inside,TARP;

!-   ===========  ALL OBJECTS IN CLASS: SURFACECONVECTIONALGORITHM:OUTSIDE ===========

  SurfaceConvectionAlgorithm:Outside,TARP;

!-   ===========  ALL OBJECTS IN CLASS: HEATBALANCEALGORITHM ===========

  HeatBalanceAlgorithm,ConductionTransferFunction,200.0000;

!-   ===========  ALL OBJECTS IN CLASS: TIMESTEP ===========

  Timestep,6;

!-   ===========  ALL OBJECTS IN CLASS: CONVERGENCELIMITS ===========

  ConvergenceLimits,
    1,                       !- Minimum System Timestep {minutes}
    20;                      !- Maximum HVAC Iterations

!-   ===========  ALL OBJECTS IN CLASS: RUNPERIOD ===========

  RunPeriod,
    ,                        !- Name
    1,                       !- Begin Month
    1,                       !- Begin Day of Month
    ,                        !- Begin Year
    12,                      !- End Month
    31,                      !- End Day of Month
    ,                        !- End Year
    Sunday,                  !- Day of Week for Start Day
    No,                      !- Use Weather File Holidays and Special Days
    No,                      !- Use Weather File Daylight Saving Period
    No,                     !- Apply Weekend Holiday Rule
    Yes,                     !- Use Weather File Rain Indicators
    Yes;                     !- Use Weather File Snow Indicators

!-   ===========  ALL OBJECTS IN CLASS: RUNPERIODCONTROL:SPECIALDAYS ===========

  RunPeriodControl:SpecialDays,
    New Years Day,           !- Name
    January 1,               !- Start Date
    1,                       !- Duration {days}
    Holiday;                 !- Special Day Type

  RunPeriodControl:SpecialDays,
    Veterans Day,            !- Name
    November 11,             !- Start Date
    1,                       !- Duration {days}
    Holiday;                 !- Special Day Type

  RunPeriodControl:SpecialDays,
    Christmas,               !- Name
    December 25,             !- Start Date
    1,                       !- Duration {days}
    Holiday;                 !- Special Day Type

  RunPeriodControl:SpecialDays,
    Independence Day,        !- Name
    July 4,                  !- Start Date
    1,                       !- Duration {days}
    Holiday;                 !- Special Day Type

  RunPeriodControl:SpecialDays,
    MLK Day,                 !- Name
    3rd Monday in January,   !- Start Date
    1,                       !- Duration {days}
    Holiday;                 !- Special Day Type

  RunPeriodControl:SpecialDays,
    Presidents Day,          !- Name
    3rd Monday in February,  !- Start Date
    1,                       !- Duration {days}
    Holiday;                 !- Special Day Type

  RunPeriodControl:SpecialDays,
    Memorial Day,            !- Name
    Last Monday in May,      !- Start Date
    1,                       !- Duration {days}
    Holiday;                 !- Special Day Type

  RunPeriodControl:SpecialDays,
    Labor Day,               !- Name
    1st Monday in September, !- Start Date
    1,                       !- Duration {days}
    Holiday;                 !- Special Day Type

  RunPeriodControl:SpecialDays,
    Columbus Day,            !- Name
    2nd Monday in October,   !- Start Date
    1,                       !- Duration {days}
    Holiday;                 !- Special Day Type

  RunPeriodControl:SpecialDays,
    Thanksgiving,            !- Name
    4th Thursday in November,!- Start Date
    1,                       !- Duration {days}
    Holiday;                 !- Special Day Type

!-   ===========  ALL OBJECTS IN CLASS: RUNPERIODCONTROL:DAYLIGHTSAVINGTIME ===========

  RunPeriodControl:DaylightSavingTime,
    2nd Sunday in March,     !- Start Date
    1st Sunday in November;  !- End Date

!-   ===========  ALL OBJECTS IN CLASS: LOCATION ===========

{% include "climates" %}

!-   ===========  ALL OBJECTS IN CLASS: MATERIAL:REGULAR-R ===========

  Material:NoMass,
    Opaque Door panel_con,   !- Name
    MediumRough,             !- Roughness
    0.251572327,  !- Thermal Resistance {m2-K/W}
    0.9,                     !- Thermal Absorptance
    0.7,                     !- Solar Absorptance
    0.7;                     !- Visible Absorptance

Material:NoMass,
    Overhead Door_con Panel, !- Name
    MediumRough,             !- Roughness
    0.352,                   !- Thermal Resistance {m2-K/W}
    0.9,                     !- Thermal Absorptance
    0.7,                     !- Solar Absorptance
    0.7;                     !- Visible Absorptance

!-   ===========  ALL OBJECTS IN CLASS: CONSTRUCTION ===========

  Construction,
    Swinging Door_con,       !- Name
    Opaque Door panel_con;   !- Outside Layer

Construction,
    Overhead Door_con,       !- Name
    Overhead Door_con Panel; !- Outside Layer

!-   ===========  ALL OBJECTS IN CLASS: SCHEDULETYPELIMITS ===========

  ScheduleTypeLimits,
    Any Number;              !- Name

  ScheduleTypeLimits,
    Fraction,                !- Name
    0.0,                     !- Lower Limit Value
    1.0,                     !- Upper Limit Value
    CONTINUOUS;              !- Numeric Type

  ScheduleTypeLimits,
    Temperature,             !- Name
    -60,                     !- Lower Limit Value
    200,                     !- Upper Limit Value
    CONTINUOUS;              !- Numeric Type

  ScheduleTypeLimits,
    On/Off,                  !- Name
    0,                       !- Lower Limit Value
    1,                       !- Upper Limit Value
    DISCRETE;                !- Numeric Type

  ScheduleTypeLimits,
    Control Type,            !- Name
    0,                       !- Lower Limit Value
    4,                       !- Upper Limit Value
    DISCRETE;                !- Numeric Type

  ScheduleTypeLimits,
    Humidity,                !- Name
    10,                      !- Lower Limit Value
    90,                      !- Upper Limit Value
    CONTINUOUS;              !- Numeric Type

  ScheduleTypeLimits,
    Number;                  !- Name

!-   ===========  ALL OBJECTS IN CLASS: SCHEDULE:COMPACT ===========

Schedule:Compact,
    ALWAYS_ON,               !- Name
    Fraction,                !- Schedule Type Limits Name
    Through: 12/31,          !- Field 1
    For: AllDays,            !- Field 2
    Until: 24:00,            !- Field 3
    1.0;                     !- Field 

Schedule:Compact,
    ALWAYS_OFF,              !- Name
    Fraction,                !- Schedule Type Limits Name
    Through: 12/31,          !- Field 1
    For: AllDays,            !- Field 2
    Until: 24:00,            !- Field 3
    0.0;                     !- Field 4

Schedule:Compact,
    MinOA_Sched,             !- Name
    fraction,                !- Schedule Type Limits Name
    Through: 12/31,          !- Field 1
    For: AllDays,            !- Field 2
    Until: 24:00,            !- Field 3
    1.0;                     !- Field 4


Schedule:Compact,
    FanModeSchedule,         !- Name
    Fraction,                !- Schedule Type Limits Name
    Through: 12/31,          !- Field 1
    For: AllDays,            !- Field 2
    Until: 7:00,             !- Field 3
    0.0,                     !- Field 4
    Until: 17:00,            !- Field 5
    1.0,                     !- Field 6
    Until: 24:00,            !- Field 7
    0.0;                     !- Field 8

{% include "HVACOperationSchd" %}

{% include "HTGSETP_SCH_NO_OPTIMUM" %}

{% include "CLGSETP_SCH_NO_OPTIMUM" %}

{% include "MinOAFraction" %}

  Schedule:Compact,
    FrontEntry_CoilSched,    !- Name
    Fraction,                !- Schedule Type Limits Name
    Through: 12/31,          !- Field 1
    For: AllDays,            !- Field 2
      Until: 24:00,            !- Field 3
      1.0;                     !- Field 4
  Schedule:Compact,
    FrontEntry_FanSched,     !- Name
    Fraction,                !- Schedule Type Limits Name
    Through: 12/31,          !- Field 1
    For: AllDays,            !- Field 2
      Until: 24:00,            !- Field 3
      1.0;                     !- Field 4    


  Schedule:Compact,
    BLDG_LIGHT_BACK_SCH,     !- Name
    Fraction,                !- Schedule Type Limits Name
    Through: 12/31,          !- Field 1
    For: Weekdays,           !- Field 2
    Until: 7:00,0.05,        !- Field 3
        Until: 8:00,0.2,               !- Field 4
        Until: 9:00,0.4,               !- Field 5
        Until: 18:00,0.9,               !- Field 6
        Until: 21:00,0.5,               !- Field 7
        Until: 22:00,0.2,               !- Field 8
        Until: 24:00,0.05,               !- Field 9
        For: Saturday,               !- Field 10
        Until: 7:00,0.05,               !- Field 11
        Until: 8:00,0.1,               !- Field 12
        Until: 9:00,0.3,               !- Field 13
        Until: 10:00,0.6,               !- Field 14
        Until: 18:00,0.9,               !- Field 15
        Until: 19:00,0.5,               !- Field 16
        Until: 21:00,0.3,               !- Field 17
        Until: 22:00,0.1,               !- Field 18
        Until: 24:00,0.05,               !- Field 19
        For: SummerDesignDay,               !- Field 20
        Until: 24:00,1,               !- Field 21
        For: WinterDesignDay,               !- Field 22
        Until: 24:00,0,               !- Field 23
        For: Sunday Holidays AllOtherDays,               !- Field 24
        Until: 9:00,0.05,               !- Field 25
        Until: 10:00,0.1,               !- Field 26
        Until: 12:00,0.4,               !- Field 27
        Until: 17:00,0.6,               !- Field 28
        Until: 18:00,0.4,               !- Field 29
        Until: 19:00,0.2,               !- Field 30
        Until: 24:00,0.05;               !- Field 31
    Schedule:Compact,
        BLDG_LIGHT_CORE_SCH,                    !- Name
        Fraction,                        !- Schedule Type Limits Name
        Through: 12/31,                  !- Field 1
        For: Weekdays,               !- Field 2
        Until: 7:00,0.05,               !- Field 3
        Until: 8:00,0.2,               !- Field 4
        Until: 9:00,0.4,               !- Field 5
        Until: 18:00,0.9,               !- Field 6
        Until: 21:00,0.5,               !- Field 7
        Until: 22:00,0.2,               !- Field 8
        Until: 24:00,0.05,               !- Field 9
        For: Saturday,               !- Field 10
        Until: 7:00,0.05,               !- Field 11
        Until: 8:00,0.1,               !- Field 12
        Until: 9:00,0.3,               !- Field 13
        Until: 10:00,0.6,               !- Field 14
        Until: 18:00,0.9,               !- Field 15
        Until: 19:00,0.5,               !- Field 16
        Until: 21:00,0.3,               !- Field 17
        Until: 22:00,0.1,               !- Field 18
        Until: 24:00,0.05,               !- Field 19
        For: SummerDesignDay,               !- Field 20
        Until: 24:00,1,               !- Field 21
        For: WinterDesignDay,               !- Field 22
        Until: 24:00,0,               !- Field 23
        For: Sunday Holidays AllOtherDays,               !- Field 24
        Until: 9:00,0.05,               !- Field 25
        Until: 10:00,0.1,               !- Field 26
        Until: 12:00,0.4,               !- Field 27
        Until: 17:00,0.6,               !- Field 28
        Until: 18:00,0.4,               !- Field 29
        Until: 19:00,0.2,               !- Field 30
        Until: 24:00,0.05;               !- Field 31

  Schedule:Compact,
    BLDG_LIGHT_ENTRY_SCH,    !- Name
    Fraction,                !- Schedule Type Limits Name
    Through: 12/31,          !- Field 1
    For: Weekdays,           !- Field 2
    Until: 7:00,0.05,        !- Field 3
        Until: 8:00,0.2,               !- Field 4
        Until: 9:00,0.4,               !- Field 5
        Until: 18:00,0.9,               !- Field 6
        Until: 21:00,0.5,               !- Field 7
        Until: 22:00,0.2,               !- Field 8
        Until: 24:00,0.05,               !- Field 9
        For: Saturday,               !- Field 10
        Until: 7:00,0.05,               !- Field 11
        Until: 8:00,0.1,               !- Field 12
        Until: 9:00,0.3,               !- Field 13
        Until: 10:00,0.6,               !- Field 14
        Until: 18:00,0.9,               !- Field 15
        Until: 19:00,0.5,               !- Field 16
        Until: 21:00,0.3,               !- Field 17
        Until: 22:00,0.1,               !- Field 18
        Until: 24:00,0.05,               !- Field 19
        For: SummerDesignDay,               !- Field 20
        Until: 24:00,1,               !- Field 21
        For: WinterDesignDay,               !- Field 22
        Until: 24:00,0,               !- Field 23
        For: Sunday Holidays AllOtherDays,               !- Field 24
        Until: 9:00,0.05,               !- Field 25
        Until: 10:00,0.1,               !- Field 26
        Until: 12:00,0.4,               !- Field 27
        Until: 17:00,0.6,               !- Field 28
        Until: 18:00,0.4,               !- Field 29
        Until: 19:00,0.2,               !- Field 30
        Until: 24:00,0.05;               !- Field 31

  Schedule:Compact,
    BLDG_LIGHT_FRONT_SCH,    !- Name
    Fraction,                !- Schedule Type Limits Name
    Through: 12/31,          !- Field 1
    For: Weekdays,           !- Field 2
    Until: 7:00,0.05,        !- Field 3
        Until: 8:00,0.2,               !- Field 4
        Until: 9:00,0.4,               !- Field 5
        Until: 18:00,0.9,               !- Field 6
        Until: 21:00,0.5,               !- Field 7
        Until: 22:00,0.2,               !- Field 8
        Until: 24:00,0.05,               !- Field 9
        For: Saturday,               !- Field 10
        Until: 7:00,0.05,               !- Field 11
        Until: 8:00,0.1,               !- Field 12
        Until: 9:00,0.3,               !- Field 13
        Until: 10:00,0.6,               !- Field 14
        Until: 18:00,0.9,               !- Field 15
        Until: 19:00,0.5,               !- Field 16
        Until: 21:00,0.3,               !- Field 17
        Until: 22:00,0.1,               !- Field 18
        Until: 24:00,0.05,               !- Field 19
        For: SummerDesignDay,               !- Field 20
        Until: 24:00,1,               !- Field 21
        For: WinterDesignDay,               !- Field 22
        Until: 24:00,0,               !- Field 23
        For: Sunday Holidays AllOtherDays,               !- Field 24
        Until: 9:00,0.05,               !- Field 25
        Until: 10:00,0.1,               !- Field 26
        Until: 12:00,0.4,               !- Field 27
        Until: 17:00,0.6,               !- Field 28
        Until: 18:00,0.4,               !- Field 29
        Until: 19:00,0.2,               !- Field 30
        Until: 24:00,0.05;               !- Field 31

  Schedule:Compact,
    BLDG_LIGHT_SCH,          !- Name
    Fraction,                !- Schedule Type Limits Name
    Through: 12/31,          !- Field 1
    For: Weekdays,           !- Field 2
    Until: 7:00,0.05,        !- Field 3
        Until: 8:00,0.2,               !- Field 4
        Until: 9:00,0.4,               !- Field 5
        Until: 18:00,0.9,               !- Field 6
        Until: 21:00,0.5,               !- Field 7
        Until: 22:00,0.2,               !- Field 8
        Until: 24:00,0.05,               !- Field 9
        For: Saturday,               !- Field 10
        Until: 7:00,0.05,               !- Field 11
        Until: 8:00,0.1,               !- Field 12
        Until: 9:00,0.3,               !- Field 13
        Until: 10:00,0.6,               !- Field 14
        Until: 18:00,0.9,               !- Field 15
        Until: 19:00,0.5,               !- Field 16
        Until: 21:00,0.3,               !- Field 17
        Until: 22:00,0.1,               !- Field 18
        Until: 24:00,0.05,               !- Field 19
        For: SummerDesignDay,               !- Field 20
        Until: 24:00,1,               !- Field 21
        For: WinterDesignDay,               !- Field 22
        Until: 24:00,0,               !- Field 23
        For: Sunday Holidays AllOtherDays,               !- Field 24
        Until: 9:00,0.05,               !- Field 25
        Until: 10:00,0.1,               !- Field 26
        Until: 12:00,0.4,               !- Field 27
        Until: 17:00,0.6,               !- Field 28
        Until: 18:00,0.4,               !- Field 29
        Until: 19:00,0.2,               !- Field 30
        Until: 24:00,0.05;               !- Field 31




















  Schedule:Compact,
    BLDG_OCC_SCH,            !- Name
    Fraction,                !- Schedule Type Limits Name
    Through: 12/31,          !- Field 1
    For: Weekdays,           !- Field 2
    Until: 07:00,0.0,        !- Field 3
    Until: 08:00,0.1,        !- Field 5
    Until: 09:00,0.2,        !- Field 7
    Until: 11:00,0.5,        !- Field 9
    Until: 15:00,0.7,        !- Field 11
    Until: 16:00,0.8,        !- Field 13
    Until: 17:00,0.7,        !- Field 15
    Until: 19:00,0.5,        !- Field 17
    Until: 21:00,0.3,        !- Field 19
    Until: 24:00,0.0,        !- Field 21
    For: SummerDesignDay,    !- Field 23
    Until: 24:00,1.0,        !- Field 24
    For: Saturday,           !- Field 26
    Until: 07:00,0.0,        !- Field 27
    Until: 08:00,0.1,        !- Field 29
    Until: 09:00,0.2,        !- Field 31
    Until: 10:00,0.5,        !- Field 33
    Until: 11:00,0.6,        !- Field 35
    Until: 17:00,0.8,        !- Field 37
    Until: 18:00,0.6,        !- Field 39
    Until: 21:00,0.2,        !- Field 41
    Until: 22:00,0.1,        !- Field 43
    Until: 24:00,0.0,        !- Field 45
    For: WinterDesignDay,    !- Field 47
    Until: 24:00,0.0,        !- Field 48
    For: Sunday Holidays AllOtherDays, !- Field 50
    Until: 09:00,0.0,        !- Field 51
    Until: 10:00,0.1,        !- Field 53
    Until: 12:00,0.2,        !- Field 55
    Until: 17:00,0.4,        !- Field 57
    Until: 18:00,0.2,        !- Field 59
    Until: 19:00,0.1,        !- Field 61
    Until: 24:00,0.0;        !- Field 63




  Schedule:Compact,
    BLDG_EQUIP_SCH,          !- Name
    Fraction,                !- Schedule Type Limits Name
    Through: 12/31,          !- Field 1
    For: Weekdays,           !- Field 2
    Until: 07:00,0.2, !- Field 3
    Until: 08:00,0.4, !- Field 5
    Until: 09:00,0.6, !- Field 7
    Until: 19:00,0.9, !- Field 9
    Until: 20:00,0.7, !- Field 11
    Until: 21:00,0.7, !- Field 13
    Until: 22:00,0.2, !- Field 15
    Until: 24:00,0.2, !- Field 17
    For: Saturday,           !- Field 19
    Until: 07:00,0.15, !- Field 20
    Until: 08:00,0.3, !- Field 22
    Until: 09:00,0.5, !- Field 24
    Until: 10:00,0.8, !- Field 26
    Until: 18:00,0.9, !- Field 28
    Until: 19:00,0.7, !- Field 30
    Until: 21:00,0.5, !- Field 32
    Until: 22:00,0.3, !- Field 34
    Until: 24:00,0.15, !- Field 36
    For: SummerDesignDay,    !- Field 38
    Until: 24:00,1.0,        !- Field 39
    For: WinterDesignDay,    !- Field 41
    Until: 24:00,0.0,        !- Field 42
    For: Sunday Holidays AllOtherDays, !- Field 44
    Until: 09:00,0.15, !- Field 45
    Until: 10:00,0.3, !- Field 47
    Until: 12:00,0.6, !- Field 49
    Until: 17:00,0.8, !- Field 51
    Until: 18:00,0.6, !- Field 53
    Until: 19:00,0.4, !- Field 55
    Until: 24:00,0.15; !- Field 57

  Schedule:Compact,
    BLDG_ELEVATORS,          !- Name
    Fraction,                !- Schedule Type Limits Name
    Through: 12/31,          !- Field 1
    For: Weekdays SummerDesignDay, !- Field 2
    Until: 07:00,0.0,        !- Field 3
    Until: 08:00,0.12,       !- Field 5
    Until: 09:00,0.22,       !- Field 7
    Until: 10:00,0.64,       !- Field 9
    Until: 11:00,0.74,       !- Field 11
    Until: 12:00,0.68,       !- Field 13
    Until: 13:00,0.68,       !- Field 15
    Until: 14:00,0.71,       !- Field 17
    Until: 15:00,0.72,       !- Field 19
    Until: 16:00,0.72,       !- Field 21
    Until: 17:00,0.73,       !- Field 23
    Until: 18:00,0.68,       !- Field 25
    Until: 19:00,0.68,       !- Field 27
    Until: 20:00,0.58,       !- Field 29
    Until: 21:00,0.54,       !- Field 31
    Until: 22:00,0.00,       !- Field 33
    Until: 24:00,0.00,       !- Field 35
    For: Saturday WinterDesignDay, !- Field 37
    Until: 07:00,0.0,        !- Field 38
    Until: 08:00,0.09,       !- Field 40
    Until: 09:00,0.21,       !- Field 42
    Until: 10:00,0.56,       !- Field 44
    Until: 11:00,0.66,       !- Field 46
    Until: 12:00,0.68,       !- Field 48
    Until: 13:00,0.68,       !- Field 50
    Until: 14:00,0.69,       !- Field 52
    Until: 15:00,0.70,       !- Field 54
    Until: 16:00,0.69,       !- Field 56
    Until: 17:00,0.66,       !- Field 58
    Until: 18:00,0.58,       !- Field 60
    Until: 19:00,0.47,       !- Field 62
    Until: 20:00,0.43,       !- Field 64
    Until: 21:00,0.43,       !- Field 66
    Until: 22:00,0.08,       !- Field 68
    Until: 24:00,0.00,       !- Field 70
    For: Sunday Holidays AllOtherDays, !- Field 72
    Until: 09:00,0.00,       !- Field 73
    Until: 10:00,0.11,       !- Field 75
    Until: 11:00,0.13,       !- Field 77
    Until: 12:00,0.35,       !- Field 79
    Until: 13:00,0.37,       !- Field 81
    Until: 14:00,0.37,       !- Field 83
    Until: 15:00,0.39,       !- Field 85
    Until: 16:00,0.41,       !- Field 87
    Until: 17:00,0.38,       !- Field 89
    Until: 18:00,0.34,       !- Field 91
    Until: 19:00,0.03,       !- Field 93
    Until: 24:00,0.00;       !- Field 95

  Schedule:Compact,
    INFIL_SCH,               !- Name
    Fraction,                !- Schedule Type Limits Name
    Through: 12/31,          !- Field 1
    For: Weekdays SummerDesignDay, !- Field 2
    Until: 06:00,1.0,        !- Field 3
    Until: 21:00,0.0,        !- Field 5
    Until: 24:00,1.0,        !- Field 7
    For: Saturday,           !- Field 9
    Until: 06:00,1.0,        !- Field 10
    Until: 22:00,0.0,        !- Field 12
    Until: 24:00,1.0,        !- Field 14
    For: WinterDesignDay,    !- Field 16
    Until: 24:00,1.0,        !- Field 17
    For: Sunday Holidays AllOtherDays, !- Field 19
    Until: 08:00,1.0,        !- Field 20
    Until: 17:00,0.0,        !- Field 22
    Until: 24:00,1.0;        !- Field 24

  Schedule:Compact,
    INFIL_HALF_ON_SCH,       !- Name
    Fraction,                !- Schedule Type Limits Name
    Through: 12/31,          !- Field 1
    For: Weekdays SummerDesignDay, !- Field 2
    Until: 06:00,1.0,        !- Field 3
    Until: 21:00,0.5,        !- Field 5
    Until: 24:00,1.0,        !- Field 7
    For: Saturday,           !- Field 9
    Until: 06:00,1.0,        !- Field 10
    Until: 22:00,0.5,        !- Field 12
    Until: 24:00,1.0,        !- Field 14
    For: WinterDesignDay,    !- Field 16
    Until: 24:00,1.0,        !- Field 17
    For: Sunday Holidays AllOtherDays, !- Field 19
    Until: 08:00,1.0,        !- Field 20
    Until: 17:00,0.5,        !- Field 22
    Until: 24:00,1.0;        !- Field 24

  Schedule:Compact,
    INFIL_Door_Opening_SCH,  !- Name
    Fraction,                !- Schedule Type Limits Name
    Through: 12/31,          !- Field 1
    For: AllDays,            !- Field 2
    Until: 08:00,0.0,        !- Field 3
    Until: 12:00,
    0.144,            !- Field 6
    Until: 18:00,1.0,        !- Field 7
    Until: 20:00,
    0.144,            !- Field 10
    Until: 24:00,0.0;        !- Field 11


  Schedule:Compact,
    BLDG_SWH_SCH,            !- Name
    Fraction,                !- Schedule Type Limits Name
    Through: 12/31,          !- Field 1
    For: Weekdays SummerDesignDay, !- Field 2
    Until: 01:00,0.00,       !- Field 3
    Until: 03:00,0.00,       !- Field 5
    Until: 07:00,0.00,       !- Field 7
    Until: 08:00,0.15,       !- Field 9
    Until: 09:00,0.23,       !- Field 11
    Until: 10:00,0.32,       !- Field 13
    Until: 11:00,0.41,       !- Field 15
    Until: 12:00,0.57,       !- Field 17
    Until: 13:00,0.62,       !- Field 19
    Until: 14:00,0.61,       !- Field 21
    Until: 15:00,0.5,        !- Field 23
    Until: 16:00,0.45,       !- Field 25
    Until: 17:00,0.46,       !- Field 27
    Until: 18:00,0.47,       !- Field 29
    Until: 19:00,0.42,       !- Field 31
    Until: 20:00,0.34,       !- Field 33
    Until: 21:00,0.33,       !- Field 35
    Until: 22:00,0.00,       !- Field 37
    Until: 23:00,0.00,       !- Field 39
    Until: 24:00,0.00,       !- Field 41
    For: Saturday WinterDesignDay, !- Field 43
    Until: 01:00,0.00,       !- Field 44
    Until: 02:00,0.00,       !- Field 46
    Until: 03:00,0.00,       !- Field 48
    Until: 06:00,0.00,       !- Field 50
    Until: 07:00,0.00,       !- Field 52
    Until: 08:00,0.2,        !- Field 54
    Until: 09:00,0.24,       !- Field 56
    Until: 10:00,0.27,       !- Field 58
    Until: 11:00,0.42,       !- Field 60
    Until: 12:00,0.54,       !- Field 62
    Until: 13:00,0.59,       !- Field 64
    Until: 14:00,0.6,        !- Field 66
    Until: 15:00,0.49,       !- Field 68
    Until: 16:00,0.48,       !- Field 70
    Until: 17:00,0.47,       !- Field 72
    Until: 18:00,0.46,       !- Field 74
    Until: 19:00,0.44,       !- Field 76
    Until: 20:00,0.36,       !- Field 78
    Until: 21:00,0.29,       !- Field 80
    Until: 22:00,0.22,       !- Field 82
    Until: 23:00,0.00,       !- Field 84
    Until: 24:00,0.00,       !- Field 86
    For: Sunday Holidays AllOtherDays, !- Field 88
    Until: 03:00,0.00,       !- Field 89
    Until: 06:00,0.00,       !- Field 91
    Until: 07:00,0.00,       !- Field 93
    Until: 08:00,0.00,       !- Field 95
    Until: 09:00,0.00,       !- Field 97
    Until: 10:00,0.14,       !- Field 99
    Until: 11:00,0.29,       !- Field 101
    Until: 12:00,0.31,       !- Field 103
    Until: 14:00,0.36,       !- Field 105
    Until: 15:00,0.34,       !- Field 107
    Until: 16:00,0.35,       !- Field 109
    Until: 17:00,0.37,       !- Field 111
    Until: 18:00,0.34,       !- Field 113
    Until: 19:00,0.25,       !- Field 115
    Until: 20:00,0.00,       !- Field 117
    Until: 21:00,0.00,       !- Field 119
    Until: 22:00,0.00,       !- Field 121
    Until: 23:00,0.00,       !- Field 123
    Until: 24:00,0.00;       !- Field 125

  Schedule:Compact,
    Hours_of_operation,      !- Name
    On/Off,                  !- Schedule Type Limits Name
    Through: 12/31,          !- Field 1
    For: Weekdays SummerDesignDay, !- Field 2
    Until: 06:00,0.0,        !- Field 3
    Until: 21:00,1.0,        !- Field 5
    Until: 24:00,0.0,        !- Field 7
    For: Saturday WinterDesignDay, !- Field 9
    Until: 06:00,0.0,        !- Field 10
    Until: 22:00,1.0,        !- Field 12
    Until: 24:00,0.0,        !- Field 14
    For: Sunday Holidays AllOtherDays, !- Field 16
    Until: 08:00,0.0,        !- Field 17
    Until: 19:00,1.0,        !- Field 19
    Until: 24:00,0.0;        !- Field 21



  Schedule:Compact,
    Hot Water Setpoint Temp Schedule,  !- Name
    Any Number,              !- Schedule Type Limits Name
    THROUGH: 12/31,          !- Field 1
    FOR: AllDays,            !- Field 2
    UNTIL: 24:00,60.0;       !- Field 3


  Schedule:Compact,
    Exterior_Lgt_ALWAYS_ON,  !- Name
    Fraction,                !- Schedule Type Limits Name
    Through: 12/31,          !- Field 1
    For: AllDays,            !- Field 2
    Until: 24:00,1;          !- Field 3


  Schedule:Compact,
    Exterior_Lgt_189_1,      !- Name
    Fraction,                !- Schedule Type Limits Name
    Through:12/31,           !- Field 1
    For:Weekdays,            !- Field 2
    Until:  9:00,0.5,        !- Field 3
    Until: 21:00,1.0,        !- Field 5
    Until: 24:00,0.5,        !- Field 7
    For:Saturday,            !- Field 9
    Until:  9:00,0.5,        !- Field 10
    Until: 22:00,1.0,        !- Field 12
    Until: 24:00,0.5,        !- Field 14
    For:Sunday Holidays  AllOtherDays, !- Field 16
    Until:  9:00,0.5,        !- Field 17
    Until: 19:00,1.0,        !- Field 19
    Until: 24:00,0.5;        !- Field 21








  Schedule:Compact,
    PlantOnSched,            !- Name
    On/Off,                  !- Schedule Type Limits Name
    Through: 12/31,          !- Field 1
    For: AllDays,            !- Field 2
    Until: 24:00,1.0;        !- Field 3

  Schedule:Compact,
    FAN_SCH,                 !- Name
    Fraction,                !- Schedule Type Limits Name
    Through: 12/31,          !- Field 1
    For: AllDays,            !- Field 2
    Until: 24:00,1.0;        !- Field 3

  Schedule:Compact,
    ReheatCoilAvailSched,    !- Name
    Fraction,                !- Schedule Type Limits Name
    Through: 12/31,          !- Field 1
    For: AllDays,            !- Field 2
    Until: 24:00,1.0;        !- Field 3

  Schedule:Compact,
    CoolingCoilAvailSched,   !- Name
    Fraction,                !- Schedule Type Limits Name
    Through: 12/31,          !- Field 1
    For: AllDays,            !- Field 2
    Until: 24:00,1.0;        !- Field 3

  Schedule:Compact,
    HTGSETP_SCH_YES_OPTIMUM, !- Name
    Temperature,             !- Schedule Type Limits Name
    Through: 12/31,          !- Field 1
    For: WinterDesignDay,    !- Field 2
    Until: 06:00,15.56,      !- Field 3
    Until: 07:00,18.33,      !- Field 5
    Until: 21:00,21.11,      !- Field 7
    Until: 24:00,15.56,      !- Field 9
    For: Weekdays,           !- Field 11
    Until: 05:00,15.56,      !- Field 12
    Until: 06:00,17.8,       !- Field 14
    Until: 07:00,20.0,       !- Field 16
    Until: 21:00,21.11,      !- Field 18
    Until: 24:00,15.56,      !- Field 20
    For SummerDesignDay,     !- Field 22
    Until: 24:00,15.56,      !- Field 23
    For: Saturday,           !- Field 25
    Until: 05:00,15.56,      !- Field 26
    Until: 06:00,17.8,       !- Field 28
    Until: 07:00,20.0,       !- Field 30
    Until: 22:00,21.11,      !- Field 32
    Until: 24:00,15.56,      !- Field 34
    For: Sunday Holidays AllOtherDays, !- Field 36
    Until: 07:00,15.56,      !- Field 37
    Until: 08:00,17.8,       !- Field 39
    Until: 09:00,20.0,       !- Field 41
    Until: 19:00,21.11,      !- Field 43
    Until: 24:00,15.56;      !- Field 45

  Schedule:Compact,
    HTGSETP_SCH_YES_OPTIMUM_ORIGINAL,  !- Name
    Temperature,             !- Schedule Type Limits Name
    Through: 12/31,          !- Field 1
    For: WinterDesignDay,    !- Field 2
    Until: 06:00,15.56,      !- Field 3
    Until: 07:00,18.33,      !- Field 5
    Until: 21:00,21.11,      !- Field 7
    Until: 24:00,15.56,      !- Field 9
    For: Weekdays,           !- Field 11
    Until: 05:00,15.56,      !- Field 12
    Until: 06:00,17.8,       !- Field 14
    Until: 07:00,20.0,       !- Field 16
    Until: 21:00,21.11,      !- Field 18
    Until: 24:00,15.56,      !- Field 20
    For SummerDesignDay,     !- Field 22
    Until: 24:00,15.56,      !- Field 23
    For: Saturday,           !- Field 25
    Until: 05:00,15.56,      !- Field 26
    Until: 06:00,17.8,       !- Field 28
    Until: 07:00,20.0,       !- Field 30
    Until: 22:00,21.11,      !- Field 32
    Until: 24:00,15.56,      !- Field 34
    For: Sunday Holidays AllOtherDays, !- Field 36
    Until: 07:00,15.56,      !- Field 37
    Until: 08:00,17.8,       !- Field 39
    Until: 09:00,20.0,       !- Field 41
    Until: 19:00,21.11,      !- Field 43
    Until: 24:00,15.56;      !- Field 45


  Schedule:Compact,
    HTGSETP_SCH_FrontEntry_STD2013,  !- Name
    Temperature,             !- Schedule Type Limits Name
    Through: 12/31,          !- Field 1
    For: WinterDesignDay,    !- Field 2
    Until: 06:00,15.56,      !- Field 3
    Until: 07:00,16,         !- Field 5
    Until: 21:00,16,         !- Field 7
    Until: 24:00,15.56,      !- Field 9
    For: Weekdays, !- Field 2
    Until: 06:00,15.56,      !- Field 3
    Until: 07:00,16,      !- Field 5
    Until: 21:00,16,      !- Field 7
    Until: 24:00,15.56,      !- Field 9
    For SummerDesignDay,     !- Field 11
    Until: 24:00,15.56,      !- Field 12
    For: Saturday,           !- Field 14
    Until: 06:00,15.56,      !- Field 15
    Until: 07:00,16,      !- Field 17
    Until: 22:00,16,      !- Field 19
    Until: 24:00,15.56,      !- Field 21
    For: Sunday Holidays AllOtherDays, !- Field 23
    Until:  8:00,15.56,      !- Field 24
    Until:  9:00,16,      !- Field 26
    Until: 19:00,16,      !- Field 28
    Until: 24:00,15.56;      !- Field 30

Schedule:Compact,
    HTGSETP_SCH_FrontEntry_VT,   !- vestibules control schedule for Vermont
    Temperature,             !- Schedule Type Limits Name
    Through: 12/31,          !- Field 1
    FOR: AllDays,            !- Field 2
    UNTIL: 24:00,13.0;       !- Field 3
  Schedule:Compact,
    HTGSETP_SCH_PSZ_AC_2,    !- Name
    Temperature,             !- Schedule Type Limits Name
    Through: 12/31,          !- Field 1
    For: WinterDesignDay,    !- Field 2
    Until: 06:00,15.56,      !- Field 3
    Until: 07:00,18.33,      !- Field 5
    Until: 21:00,21.11,      !- Field 7
    Until: 24:00,15.56,      !- Field 9
    For: Weekdays,           !- Field 11
    Until: 05:00,15.56,      !- Field 12
    Until: 06:00,21.11,      !- Field 14
    Until: 07:00,21.11,      !- Field 16
    Until: 21:00,21.11,      !- Field 18
    Until: 24:00,15.56,      !- Field 20
    For SummerDesignDay,     !- Field 22
    Until: 24:00,15.56,      !- Field 23
    For: Saturday,           !- Field 25
    Until: 05:00,15.56,      !- Field 26
    Until: 06:00,21.11,      !- Field 28
    Until: 07:00,21.11,      !- Field 30
    Until: 22:00,21.11,      !- Field 32
    Until: 24:00,15.56,      !- Field 34
    For: Sunday Holidays AllOtherDays, !- Field 36
    Until: 07:00,15.56,      !- Field 37
    Until: 08:00,21.11,      !- Field 39
    Until: 09:00,21.11,      !- Field 41
    Until: 19:00,21.11,      !- Field 43
    Until: 24:00,15.56;      !- Field 45

  Schedule:Compact,
    CLGSETP_SCH_YES_OPTIMUM, !- Name
    Temperature,             !- Schedule Type Limits Name
    Through: 12/31,          !- Field 1
    For: SummerDesignDay,    !- Field 2
    Until: 06:00,29.44,      !- Field 3
    Until: 07:00,26.67,      !- Field 5
    Until: 21:00,23.89,      !- Field 7
    Until: 24:00,29.44,      !- Field 9
    For: Weekdays,           !- Field 11
    Until: 05:00,29.44,      !- Field 12
    Until: 06:00,27.8,       !- Field 14
    Until: 07:00,25.6,       !- Field 16
    Until: 21:00,23.89,      !- Field 18
    Until: 24:00,29.44,      !- Field 20
    For: Saturday,           !- Field 22
    Until: 05:00,29.44,      !- Field 23
    Until: 06:00,27.8,       !- Field 25
    Until: 07:00,25.6,       !- Field 27
    Until: 22:00,23.89,      !- Field 29
    Until: 24:00,29.44,      !- Field 31
    For WinterDesignDay,     !- Field 33
    Until: 24:00,29.44,      !- Field 34
    For: Sunday Holidays AllOtherDays, !- Field 36
    Until: 07:00,29.44,      !- Field 37
    Until: 08:00,27.8,       !- Field 39
    Until: 09:00,25.6,       !- Field 41
    Until: 19:00,23.89,      !- Field 43
    Until: 24:00,29.44;      !- Field 45

  Schedule:Compact,
    CLGSETP_SCH_YES_OPTIMUM_ORIGINAL,  !- Name
    Temperature,             !- Schedule Type Limits Name
    Through: 12/31,          !- Field 1
    For: SummerDesignDay,    !- Field 2
    Until: 06:00,29.44,      !- Field 3
    Until: 07:00,26.67,      !- Field 5
    Until: 21:00,23.89,      !- Field 7
    Until: 24:00,29.44,      !- Field 9
    For: Weekdays,           !- Field 11
    Until: 05:00,29.44,      !- Field 12
    Until: 06:00,27.8,       !- Field 14
    Until: 07:00,25.6,       !- Field 16
    Until: 21:00,23.89,      !- Field 18
    Until: 24:00,29.44,      !- Field 20
    For: Saturday,           !- Field 22
    Until: 05:00,29.44,      !- Field 23
    Until: 06:00,27.8,       !- Field 25
    Until: 07:00,25.6,       !- Field 27
    Until: 22:00,23.89,      !- Field 29
    Until: 24:00,29.44,      !- Field 31
    For WinterDesignDay,     !- Field 33
    Until: 24:00,29.44,      !- Field 34
    For: Sunday Holidays AllOtherDays, !- Field 36
    Until: 07:00,29.44,      !- Field 37
    Until: 08:00,27.8,       !- Field 39
    Until: 09:00,25.6,       !- Field 41
    Until: 19:00,23.89,      !- Field 43
    Until: 24:00,29.44;      !- Field 45


  Schedule:Compact,
    CLGSETP_SCH_PSZ_AC_2,    !- Name
    Temperature,             !- Schedule Type Limits Name
    Through: 12/31,          !- Field 1
    For: SummerDesignDay,    !- Field 2
    Until: 06:00,29.44,      !- Field 3
    Until: 07:00,26.67,      !- Field 5
    Until: 21:00,23.89,      !- Field 7
    Until: 24:00,29.44,      !- Field 9
    For: Weekdays,           !- Field 11
    Until: 05:00,29.44,      !- Field 12
    Until: 06:00,23.89,      !- Field 14
    Until: 07:00,23.89,      !- Field 16
    Until: 21:00,23.89,      !- Field 18
    Until: 24:00,29.44,      !- Field 20
    For: Saturday,           !- Field 22
    Until: 05:00,29.44,      !- Field 23
    Until: 06:00,23.89,      !- Field 25
    Until: 07:00,23.89,      !- Field 27
    Until: 22:00,23.89,      !- Field 29
    Until: 24:00,29.44,      !- Field 31
    For WinterDesignDay,     !- Field 33
    Until: 24:00,29.44,      !- Field 34
    For: Sunday Holidays AllOtherDays, !- Field 36
    Until: 07:00,29.44,      !- Field 37
    Until: 08:00,23.89,      !- Field 39
    Until: 09:00,23.89,      !- Field 41
    Until: 19:00,23.89,      !- Field 43
    Until: 24:00,29.44;      !- Field 45

  Schedule:Compact,
    CLGSETP_SCH_NO_SETBACK,  !- Name
    Temperature,             !- Schedule Type Limits Name
    Through: 12/31,          !- Field 1
    For: SummerDesignDay,    !- Field 2
    Until: 06:00,29.44,      !- Field 3
    Until: 07:00,26.67,      !- Field 5
    Until: 21:00,23.89,      !- Field 7
    Until: 24:00,29.44,      !- Field 9
    For: Weekdays,           !- Field 11
    Until: 05:00,23.89,      !- Field 12
    Until: 06:00,23.89,      !- Field 14
    Until: 07:00,23.89,      !- Field 16
    Until: 21:00,23.89,      !- Field 18
    Until: 24:00,23.89,      !- Field 20
    For: Saturday,           !- Field 22
    Until: 05:00,23.89,      !- Field 23
    Until: 06:00,23.89,      !- Field 25
    Until: 07:00,23.89,      !- Field 27
    Until: 22:00,23.89,      !- Field 29
    Until: 24:00,23.89,      !- Field 31
    For WinterDesignDay,     !- Field 33
    Until: 24:00,29.44,      !- Field 34
    For: Sunday Holidays AllOtherDays, !- Field 36
    Until: 07:00,23.89,      !- Field 37
    Until: 08:00,23.89,      !- Field 39
    Until: 09:00,23.89,      !- Field 41
    Until: 19:00,23.89,      !- Field 43
    Until: 24:00,23.89;      !- Field 45

  Schedule:Compact,
    Humidity Setpoint Schedule,  !- Name
    Humidity,                !- Schedule Type Limits Name
    Through: 12/31,          !- Field 1
    For: Weekdays SummerDesignDay, !- Field 2
    Until: 24:00,50,         !- Field 3
    For: Saturday WinterDesignDay, !- Field 5
    Until: 24:00,50,         !- Field 6
    For: Sunday Holidays AllOtherDays, !- Field 8
    Until: 24:00,50;         !- Field 9

  Schedule:Compact,
    MinOA_MotorizedDamper_Sched,  !- Name
    Fraction,                !- Schedule Type Limits Name
    Through: 12/31,          !- Field 1
    For: Weekdays SummerDesignDay, !- Field 2
    Until: 07:00,0.0,        !- Field 3
    Until: 21:00,1.0,        !- Field 5
    Until: 24:00,0.0,        !- Field 7
    For: Saturday,           !- Field 9
    Until: 07:00,0.0,        !- Field 10
    Until: 22:00,1.0,        !- Field 12
    Until: 24:00,0.0,        !- Field 14
    For: WinterDesignDay,    !- Field 16
    Until: 24:00,1.0,        !- Field 17
    For: Sunday Holidays AllOtherDays, !- Field 19
    Until: 09:00,0.0,        !- Field 20
    Until: 19:00,1.0,        !- Field 22
    Until: 24:00,0.0;        !- Field 24

  Schedule:Compact,
    Dual Zone Control Type Sched,  !- Name
    Control Type,            !- Schedule Type Limits Name
    Through: 12/31,          !- Field 1
    For: AllDays,            !- Field 2
    Until: 24:00,4;          !- Field 3

  Schedule:Compact,
    Seasonal-Reset-Supply-Air-Temp-Sch,  !- Name
    Temperature,             !- Schedule Type Limits Name
    Through: 3/31,           !- Field 1
    For: AllDays,            !- Field 2
    Until: 24:00,13.0,       !- Field 3
    Through: 9/30,           !- Field 5
    For: AllDays,            !- Field 6
    Until: 24:00,13.0,       !- Field 7
    Through: 12/31,          !- Field 9
    For: AllDays,            !- Field 10
    Until: 24:00,13.0;       !- Field 11

  Schedule:Compact,
    CW-Loop-Temp-Schedule,   !- Name
    Temperature,             !- Schedule Type Limits Name
    Through: 12/31,          !- Field 1
    For: AllDays,            !- Field 2
    Until: 24:00,6.7;        !- Field 3

  Schedule:Compact,
    HW-Loop-Temp-Schedule,   !- Name
    Temperature,             !- Schedule Type Limits Name
    Through: 12/31,          !- Field 1
    For: AllDays,            !- Field 2
    Until: 24:00,60.;        !- Field 3

  Schedule:Compact,
    Heating-Supply-Air-Temp-Sch,  !- Name
    Temperature,             !- Schedule Type Limits Name
    Through: 12/31,          !- Field 1
    For: AllDays,            !- Field 2
    Until: 24:00,16.0;       !- Field 3

  Schedule:Compact,
    ACTIVITY_SCH,            !- Name
    Any Number,              !- Schedule Type Limits Name
    Through: 12/31,          !- Field 1
    For: AllDays,            !- Field 2
    Until: 24:00,120.;       !- Field 3

  Schedule:Compact,
    WORK_EFF_SCH,            !- Name
    Fraction,                !- Schedule Type Limits Name
    Through: 12/31,          !- Field 1
    For: AllDays,            !- Field 2
    Until: 24:00,0.0;        !- Field 3

  Schedule:Compact,
    AIR_VELO_SCH,            !- Name
    Any Number,              !- Schedule Type Limits Name
    Through: 12/31,          !- Field 1
    For: AllDays,            !- Field 2
    Until: 24:00,0.2;        !- Field 3

  Schedule:Compact,
    CLOTHING_SCH,            !- Name
    Any Number,              !- Schedule Type Limits Name
    Through: 04/30,          !- Field 1
    For: AllDays,            !- Field 2
    Until: 24:00,1.0,        !- Field 3
    Through: 09/30,          !- Field 5
    For: AllDays,            !- Field 6
    Until: 24:00,0.5,        !- Field 7
    Through: 12/31,          !- Field 9
    For: AllDays,            !- Field 10
    Until: 24:00,1.0;        !- Field 11

  Schedule:Compact,
    SHADING_SCH,             !- Name
    Any Number,              !- Schedule Type Limits Name
    Through: 12/31,          !- Field 1
    For: AllDays,            !- Field 2
    Until: 24:00,0.0;        !- Field 3



  Schedule:Compact,
    FRONT_ENTRY_COOLING,     !- Name
    Temperature,             !- Schedule Type Limits Name
    Through: 12/31,          !- Field 1
    For: AllDays,            !- Field 2
    Until: 24:00,100.;       !- Field 3

  Schedule:Compact,
    INFIL_SCH_PNNL,          !- Name
    Fraction,                !- Schedule Type Limits Name
    Through: 12/31,          !- Field 1
    For: Weekdays SummerDesignDay, !- Field 2
    Until: 06:00,1.0,        !- Field 3
    Until: 21:00,0.25,       !- Field 5
    Until: 24:00,1.0,        !- Field 7
    For: Saturday WinterDesignDay, !- Field 9
    Until: 06:00,1.0,        !- Field 10
    Until: 22:00,0.25,       !- Field 12
    Until: 24:00,1.0,        !- Field 14
    For: Sunday Holidays AllOtherDays, !- Field 16
    Until: 08:00,1.0,        !- Field 17
    Until: 19:00,0.25,       !- Field 19
    Until: 24:00,1.0;        !- Field 21

  Schedule:Constant,SZ_system_OA_Max_Frac_SCH,Fraction,
  0.7;


Schedule:Compact,
    Supply-Temp-Schedule,  !- Name
    Temperature,             !- Schedule Type Limits Name
    Through: 12/31,          !- Field 1
    For: AllDays,            !- Field 2
    Until: 24:00,            !- Field 3
    12.8;                      !- Field 4


Schedule:Compact,
    OutdoorAirAvailSched,    !- Name
    Fraction,                !- Schedule Type Limits Name
    Through: 3/31,           !- Field 1
    For: AllDays,            !- Field 2
    Until: 24:00,            !- Field 3
    1.0,                     !- Field 4
    Through: 9/30,           !- Field 5
    For: WeekDays,           !- Field 6
    Until: 7:00,             !- Field 7
    0.0,                     !- Field 8
    Until: 17:00,            !- Field 9
    1.0,                     !- Field 10
    Until: 24:00,            !- Field 11
    0.0,                     !- Field 12
    For: SummerDesignDay WinterDesignDay,  !- Field 13
    Until: 24:00,            !- Field 14
    0.0,                     !- Field 15
    For: AllOtherDays,       !- Field 16
    Until: 24:00,            !- Field 17
    0.0,                     !- Field 18
    Through: 12/31,          !- Field 19
    For: AllDays,            !- Field 20
    Until: 24:00,            !- Field 21
    1.0;                     !- Field 22
!
!-   ===========  ALL OBJECTS IN CLASS: MATERIAL:REGULAR ===========
 
{% include "wall_roof" %} 
 
  Material,
    Std Wood 6inch,          !- Name
    MediumSmooth,            !- Roughness
    0.15,                    !- Thickness {m}
    0.12,                    !- Conductivity {W/m-K}
    540.0000,                !- Density {kg/m3}
    1210,                    !- Specific Heat {J/kg-K}
    0.9000000,               !- Thermal Absorptance
    0.7000000,               !- Solar Absorptance
    0.7000000;               !- Visible Absorptance
 
  Material,
    AC02 Acoustic Ceiling,   !- Name
    MediumSmooth,            !- Roughness
    1.2700000E-02,           !- Thickness {m}
    5.7000000E-02,           !- Conductivity {W/m-K}
    288.0000,                !- Density {kg/m3}
    1339.000,                !- Specific Heat {J/kg-K}
    0.9000000,               !- Thermal Absorptance
    0.7000000,               !- Solar Absorptance
    0.2000000;               !- Visible Absorptance
 
  Material,
    F07 25mm stucco,         !- Name
    Smooth,                  !- Roughness
    0.0254,                  !- Thickness {m}
    0.72,                    !- Conductivity {W/m-K}
    1856,                    !- Density {kg/m3}
    840,                     !- Specific Heat {J/kg-K}
    0.9,                     !- Thermal Absorptance
    0.7,                     !- Solar Absorptance
    0.7;                     !- Visible Absorptance
 
  Material,
    F08 Metal surface,       !- Name
    Smooth,                  !- Roughness
    0.0008,                  !- Thickness {m}
    45.28,                   !- Conductivity {W/m-K}
    7824,                    !- Density {kg/m3}
    500;                     !- Specific Heat {J/kg-K}

  Material,
    F08 Metal roof surface,       !- Name
    Smooth,                  !- Roughness
    0.0008,                  !- Thickness {m}
    45.28,                   !- Conductivity {W/m-K}
    7824,                    !- Density {kg/m3}
    500,                     !- Specific Heat {J/kg-K}
    0.9,                     !- Absorptance:Thermal
    0.7;                     !- Absorptance:Solar
    
  Material,
    F12 Asphalt shingles,    !- Name
    VeryRough,               !- Roughness
    0.0032,                  !- Thickness {m}
    0.04,                    !- Conductivity {W/m-K}
    1120,                    !- Density {kg/m3}
    1260,                    !- Specific Heat {J/kg-K}
    0.9,                     !- Absorptance:Thermal
    0.7;                     !- Absorptance:Solar
 
  Material,
    F13 Built-up roofing,    !- Name
    Rough,                   !- Roughness
    0.0095,                  !- Thickness {m}
    0.16,                    !- Conductivity {W/m-K}
    1120,                    !- Density {kg/m3}
    1460,                    !- Specific Heat {J/kg-K}
    0.9,                     !- Absorptance:Thermal
    0.7;                     !- Absorptance:Solar

  Material,
    G01 13mm gypsum board,   !- Name
    Smooth,                  !- Roughness
    0.0127,                  !- Thickness {m}
    0.1600,                  !- Conductivity {W/m-K}
    800.0000,                !- Density {kg/m3}
    1090.0000,               !- Specific Heat {J/kg-K}
    0.9000,                  !- Absorptance:Thermal
    0.7000,                  !- Absorptance:Solar
    0.5000;                  !- Absorptance:Visible
    
  Material,
    G01 16mm gypsum board,   !- Name
    MediumSmooth,            !- Roughness
    0.0159,                  !- Thickness {m}
    0.16,                    !- Conductivity {W/m-K}
    800,                     !- Density {kg/m3}
    1090;                    !- Specific Heat {J/kg-K}
 
  Material,
    G02 16mm plywood,        !- Name
    Smooth,                  !- Roughness
    0.0159,                  !- Thickness {m}
    0.12,                    !- Conductivity {W/m-K}
    544,                     !- Density {kg/m3}
    1210;                    !- Specific Heat {J/kg-K}
 
  Material,
    M14 150mm heavyweight concrete roof,  !- Name
    MediumRough,             !- Roughness
    0.1524,                  !- Thickness {m}
    2.31,                    !- Conductivity {W/m-K}
    2322,       !- Density {kg/m3}
    832;           !- Specific Heat {J/kg-K}


  Material,
    100mm Normalweight concrete wall,  !- Name  - based on 90.1-2004 Appendix-Table A3-1B
    MediumRough,             !- Roughness
    0.1016,                  !- Thickness {m}
    2.31,                    !- Conductivity {W/m-K}
    2322,       !- Density {kg/m3}
    832;           !- Specific Heat {J/kg-K}


  Material,
    200mm Normalweight concrete wall,  !- Name  - based on 90.1-2004 Appendix-Table A3-1B
    MediumRough,             !- Roughness
    0.2032,                  !- Thickness {m}
    2.31,                    !- Conductivity {W/m-K}
    2322,       !- Density {kg/m3}
    832;           !- Specific Heat {J/kg-K}

  Material,
    100mm Normalweight concrete floor,  !- Name  - based on 90.1-2004 Appendix-Table A3-1B
    MediumRough,             !- Roughness
    0.1016,                  !- Thickness {m}
    2.31,                    !- Conductivity {W/m-K}
    2322,       !- Density {kg/m3}
    832;           !- Specific Heat {J/kg-K}

  Material,
    150mm Normalweight concrete floor,  !- Name  - based on 90.1-2004 Appendix-Table A3-1B
    MediumRough,             !- Roughness
    0.1524,                  !- Thickness {m}
    2.31,                    !- Conductivity {W/m-K}
    2322,       !- Density {kg/m3}
    832;           !- Specific Heat {J/kg-K}

  Material,
    200mm Normalweight concrete floor,  !- Name  - based on 90.1-2004 Appendix-Table A3-1B
    MediumRough,             !- Roughness
    0.2032,                  !- Thickness {m}
    2.31,                    !- Conductivity {W/m-K}
    2322,       !- Density {kg/m3}
    832;           !- Specific Heat {J/kg-K}

  Material,
    M10 200mm concrete block wall,  !- Name
    MediumRough,             !- Roughness
    0.2032,                  !- Thickness {m}
    0.72,                    !- Conductivity {W/m-K}
    800,       !- Density {kg/m3}
    832;           !- Specific Heat {J/kg-K}

  Material,
    M10 200mm concrete block basement wall,  !- Name
    MediumRough,             !- Roughness
    0.2032,                  !- Thickness {m}
    1.326,                    !- Conductivity {W/m-K}
    1842,       !- Density {kg/m3}
    912;           !- Specific Heat {J/kg-K}


  Material:NoMass,
    CP02 CARPET PAD,         !- Name
    VeryRough,               !- Roughness
    0.21648,                 !- Thermal Resistance {m2-K/W}
    0.9,                     !- Thermal Absorptance
    0.7,                     !- Solar Absorptance
    0.8;                     !- Visible Absorptance

 
  Material:NoMass,
    Air_Wall_Material,       !- Name
    Rough,                   !- Roughness
    0.2079491,               !- Thermal Resistance {m2-K/W}
    0.9,                     !- Thermal Absorptance
    0.7;                     !- Solar Absorptance


  Material:NoMass,
    Res_Roof_Insulation,  !- Name
    MediumSmooth,            !- Roughness
    0.0299387330245182,
            !- Thermal Resistance {m2-K/W}
    0.9,                     !- Thermal Absorptance
    0.7,                     !- Solar Absorptance
    0.7;                     !- Visible Absorptance

  Material:NoMass,
    Semiheated_Roof_Insulation,  !- Name
    MediumSmooth,            !- Roughness
    0.0299387330245182,
            !- Thermal Resistance {m2-K/W}
    0.9,                     !- Thermal Absorptance
    0.7,                     !- Solar Absorptance
    0.7;                     !- Visible Absorptance


  Material:NoMass,
    Res_Exterior_Wall_Insulation,  !- Name
    MediumSmooth,            !- Roughness
    0.0299387330245182,
            !- Thermal Resistance {m2-K/W}
    0.9,                     !- Thermal Absorptance
    0.7,                     !- Solar Absorptance
    0.7;                     !- Visible Absorptance

  Material:NoMass,
    Semiheated_Exterior_Wall_Insulation,  !- Name
    MediumSmooth,            !- Roughness
    0.0299387330245182,
            !- Thermal Resistance {m2-K/W}
    0.9,                     !- Thermal Absorptance
    0.7,                     !- Solar Absorptance
    0.7;                     !- Visible Absorptance



  Material:NoMass,
    Nonres_Floor_Insulation,  !- Name
    MediumSmooth,            !- Roughness

    0.0299387330245182,
            !- Thermal Resistance {m2-K/W}
    0.9,                     !- Thermal Absorptance
    0.7,                     !- Solar Absorptance
    0.7;                     !- Visible Absorptance

  Material:NoMass,
    Res_Floor_Insulation,  !- Name
    MediumSmooth,            !- Roughness

    0.0299387330245182,
            !- Thermal Resistance {m2-K/W}
    0.9,                     !- Thermal Absorptance
    0.7,                     !- Solar Absorptance
    0.7;                     !- Visible Absorptance

  Material:NoMass,
    Semiheated_Floor_Insulation,  !- Name
    MediumSmooth,            !- Roughness

    0.0299387330245182,
            !- Thermal Resistance {m2-K/W}
    0.9,                     !- Thermal Absorptance
    0.7,                     !- Solar Absorptance
    0.7;                     !- Visible Absorptance

  Material:NoMass,
    Std Opaque Door Panel,  !- Name
    MediumRough,             !- Roughness
    0.123456790123457,  !- (corresponds to default RSI-0.12327 or R-0.7) Thermal Resistance {m2-K/W}
    0.9,                     !- Thermal Absorptance
    0.7,                     !- Solar Absorptance
    0.7;                     !- Visible Absorptance

{% include "window" %} 

!-   ===========  ALL OBJECTS IN CLASS: CONSTRUCTION ===========

  Construction,
    InteriorFurnishings,     !- Name
    Std Wood 6inch;          !- Outside Layer
 
  Construction,
    Air_Wall,                !- Name
    Air_Wall_Material;       !- Outside Layer

  Construction,
    DropCeiling,             !- Name
    AC02 Acoustic Ceiling;   !- Outside Layer
   
  Construction,
    OpaqueDoor,   !- Name
    Std Opaque Door Panel;  !- Outside Layer

  Construction,
    AtticRoofDeck,           !- Name
    F12 Asphalt shingles,    !- Outside Layer
    G02 16mm plywood;        !- Layer 2
 
  Construction,
    int_wall,                !- Name
    G01 13mm gypsum board,   !- Outside Layer
    G01 13mm gypsum board;   !- Layer 2
 
  Construction,
    ext_slab_8in_with_carpet,!- Name
    200mm Normalweight concrete floor,  !- Outside Layer
    CP02 CARPET PAD;         !- Layer 2
 
  Construction,
    ext_slab_8in,            !- Name
    200mm Normalweight concrete floor;  !- Outside Layer
 
  Construction,
    ext_slab_6in_with_carpet,!- Name
    150mm Normalweight concrete floor,  !- Outside Layer
    CP02 CARPET PAD;         !- Layer 2
 
  Construction,
    ext_slab_6in,            !- Name
    150mm Normalweight concrete floor;  !- Outside Layer
 
  Construction,
    int_slab_floor,          !- Name
    100mm Normalweight concrete floor,  !- Outside Layer
    CP02 CARPET PAD;         !- Layer 2
 
  Construction,
    int_slab_ceiling,        !- Name
    CP02 CARPET PAD,         !- Outside Layer
    100mm Normalweight concrete floor;  !- Layer 2
 
  Construction,
    basement_wall,           !- Name
    M10 200mm concrete block basement wall;  !- Outside Layer
 
  Construction,
    int_wood_floor,          !- Name
    AC02 Acoustic Ceiling,   !- Outside Layer
    G02 16mm plywood,        !- Layer 2
    CP02 CARPET PAD;         !- Layer 3
 
  Construction,
    ext_soffit_floor,          !- Name
    G02 16mm plywood;   !- Outside Layer
 
  Construction,
    nonres_roof,                   !- Name
        Nonres_Roof_Insulation,   !- Outside Layer
        G01 16mm gypsum board;  !- Layer #2


  Construction,
    res_roof,                   !- Name
        Res_Roof_Insulation,   !- Outside Layer
        G01 16mm gypsum board;  !- Layer #2


  Construction,
    semiheated_roof,                   !- Name
        Semiheated_Roof_Insulation,   !- Outside Layer
        G01 16mm gypsum board;  !- Layer #2


  Construction,
    nonres_roof_floor,               !- Name - Other side zone surface definition for nonres_roof
        G01 16mm gypsum board,  !- Outside Layer
        Nonres_Roof_Insulation;   !- Layer #2

  Construction,
    res_roof_floor,               !- Name - Other side zone surface definition for res_roof
        G01 16mm gypsum board,  !- Outside Layer
        Res_Roof_Insulation;   !- Layer #2

  Construction,
    semiheated_roof_floor,               !- Name - Other side zone surface definition for semiheated_roof
        G01 16mm gypsum board,  !- Outside Layer
        Semiheated_Roof_Insulation;   !- Layer #2



  Construction,
    nonres_ext_wall,               !- Name
    F07 25mm stucco,               !- Outside Layer
    G01 16mm gypsum board,         !- Layer #2
    Nonres_Exterior_Wall_Insulation,      !- Layer #3
    G01 16mm gypsum board;         !- Layer #4


  Construction,
    res_ext_wall,               !- Name
    F07 25mm stucco,               !- Outside Layer
    G01 16mm gypsum board,         !- Layer #1
    Nonres_Exterior_Wall_Insulation,      !- Layer #2
    G01 16mm gypsum board;         !- Layer #3


  Construction,
    semiheated_ext_wall,               !- Name
    F07 25mm stucco,               !- Outside Layer
    G01 16mm gypsum board,         !- Layer #1
    Semiheated_Exterior_Wall_Insulation,      !- Layer #2
    G01 16mm gypsum board;         !- Layer #3


  Construction,
    nonres_floor,                !- Name
    Nonres_Floor_Insulation,               !- Outside Layer
    100mm Normalweight concrete floor,         !- Layer #1
    CP02 CARPET PAD;         !- Layer #2


  Construction,
    res_floor,                !- Name
    Res_Floor_Insulation,               !- Outside Layer
    100mm Normalweight concrete floor,         !- Layer #1
    CP02 CARPET PAD;         !- Layer #2


  Construction,
    semiheated_floor,                !- Name
    Semiheated_Floor_Insulation,               !- Outside Layer
    100mm Normalweight concrete floor,         !- Layer #1
    CP02 CARPET PAD;         !- Layer #2


  Construction,
    nonres_floor_ceiling,                !- Name - reverse ordered layers for nonres_floor
    CP02 CARPET PAD,               !- Outside Layer
    100mm Normalweight concrete floor,         !- Layer #1
    Nonres_Floor_Insulation;         !- Layer #2
       
  Construction,
    res_floor_ceiling,                !- Name - reverse ordered layers for res_floor
    CP02 CARPET PAD,               !- Outside Layer
    100mm Normalweight concrete floor,         !- Layer #1
    Res_Floor_Insulation;         !- Layer #2
       
  Construction,
    semiheated_floor_ceiling,                !- Name - reverse ordered layers for semiheated_floor
    CP02 CARPET PAD,               !- Outside Layer
    100mm Normalweight concrete floor,         !- Layer #1
    Semiheated_Floor_Insulation;         !- Layer #2
       
Construction,
    Window_U_0.36_SHGC_0.36, !- Name
    Glazing Layer;           !- Outside Layer

Construction:FfactorGroundFloor,
    Back_Space_Floor_Ffactor,!- Name
    1.26363,                 !- F-Factor {W/m-K}
    379.8899999999999,       !- Area {m2}
    68.27000000000001;       !- PerimeterExposed {m}

Construction:FfactorGroundFloor,
    Core_Retail_Floor_Ffactor,  !- Name
    1.26363,                 !- F-Factor {W/m-K}
    1600.4829,               !- Area {m2}
    58.53999999999999;       !- PerimeterExposed {m}

Construction:FfactorGroundFloor,
    Point_Of_Sale_Floor_Ffactor,  !- Name
    1.26363,                 !- F-Factor {W/m-K}
    150.81,                  !- Area {m2}
    31.135;                  !- PerimeterExposed {m}

Construction:FfactorGroundFloor,
    Front_Retail_Floor_Ffactor,  !- Name
    1.26363,                 !- F-Factor {W/m-K}
    150.81,                  !- Area {m2}
    31.135;                  !- PerimeterExposed {m}

Construction:FfactorGroundFloor,
    Front_Entry_Floor_Ffactor,  !- Name
    1.26363,                 !- F-Factor {W/m-K}
    12.0,                    !- Area {m2}
    4.0;                     !- PerimeterExposed {m}

WindowProperty:FrameAndDivider,
    Skylight_Frame,          !- Name
    0.059953215290085,       !- Frame Width {m}
    ,                        !- Frame Outside Projection {m}
    ,                        !- Frame Inside Projection {m}
    283.91315,               !- Frame Conductance {W/m2-K}
    1,                       !- Ratio of Frame-Edge Glass Conductance to Center-Of-Glass Conductance
    0.7,                     !- Frame Solar Absorptance
    0.7,                     !- Frame Visible Absorptance
    0.9,                     !- Frame Thermal Hemispherical Emissivity
    ,                        !- Divider Type
    ,                        !- Divider Width {m}
    ,                        !- Number of Horizontal Dividers
    ,                        !- Number of Vertical Dividers
    ,                        !- Divider Outside Projection {m}
    ,                        !- Divider Inside Projection {m}
    ,                        !- Divider Conductance {W/m2-K}
    1,                       !- Ratio of Divider-Edge Glass Conductance to Center-Of-Glass Conductance
    ,                        !- Divider Solar Absorptance
    ,                        !- Divider Visible Absorptance
    0.9;                     !- Divider Thermal Hemispherical Emissivity



!-   ===========  ALL OBJECTS IN CLASS: GLOBALGEOMETRYRULES ===========

  GlobalGeometryRules,
    UpperLeftCorner,         !- Starting Vertex Position
    Counterclockwise,        !- Vertex Entry Direction
    Relative,                !- Coordinate System
    Relative;                !- Daylighting Reference Point Coordinate System

    

  Construction:FfactorGroundFloor,
    Core_ZN_floor_Ffactor,  !- Name
    1.26363,   !- F-Factor
    149.65740000000005,   !- Area
    0;   !- PerimeterExposed

  Construction:FfactorGroundFloor,
    Perimeter_ZN_1_floor_Ffactor,  !- Name
    1.26363,   !- F-Factor
    113.45000000000002,   !- Area
    27.69;   !- PerimeterExposed

  Construction:FfactorGroundFloor,
    Perimeter_ZN_2_floor_Ffactor,  !- Name
    1.26363,   !- F-Factor
    67.29999999999995,   !- Area
    18.46;   !- PerimeterExposed

  Construction:FfactorGroundFloor,
    Perimeter_ZN_3_floor_Ffactor,  !- Name
    1.26363,   !- F-Factor
    113.44999999999999,   !- Area
    27.69;   !- PerimeterExposed

  Construction:FfactorGroundFloor,
    Perimeter_ZN_4_floor_Ffactor,  !- Name
    1.26363,   !- F-Factor
    67.30000000000001,   !- Area
    18.46;   !- PerimeterExposed



  
!-   ===========  ALL OBJECTS IN CLASS: ZONE ===========
 

  Zone,
    Back_Space,              !- Name
    0.0000,                  !- Direction of Relative North {deg}
    0.0000,                  !- X Origin {m}
    35.2700,                 !- Y Origin {m}
    0.0000,                  !- Z Origin {m}
    1,                       !- Type
    1.0000,                  !- Multiplier
    -9999.0000,              !- Ceiling Height {m}
    2317.3300,               !- Volume {m3}
    autocalculate,           !- Floor Area {m2}
    ,                        !- Zone Inside Convection Algorithm
    ,                        !- Zone Outside Convection Algorithm
    Yes;                     !- Part of Total Floor Area

  Zone,
    Core_Retail,             !- Name
    0.0000,                  !- Direction of Relative North {deg}
    0.0000,                  !- X Origin {m}
    6.0000,                  !- Y Origin {m}
    0.0000,                  !- Z Origin {m}
    1,                       !- Type
    1.0000,                  !- Multiplier
    -9999.0000,              !- Ceiling Height {m}
    9762.9500,               !- Volume {m3}
    autocalculate,           !- Floor Area {m2}
    ,                        !- Zone Inside Convection Algorithm
    ,                        !- Zone Outside Convection Algorithm
    Yes;                     !- Part of Total Floor Area

  Zone,
    Point_Of_Sale,           !- Name
    0.0000,                  !- Direction of Relative North {deg}
    0.0000,                  !- X Origin {m}
    0.0000,                  !- Y Origin {m}
    0.0000,                  !- Z Origin {m}
    1,                       !- Type
    1.0000,                  !- Multiplier
    -9999.0000,              !- Ceiling Height {m}
    919.9410,                !- Volume {m3}
    autocalculate,           !- Floor Area {m2}
    ,                        !- Zone Inside Convection Algorithm
    ,                        !- Zone Outside Convection Algorithm
    Yes;                     !- Part of Total Floor Area

  Zone,
    Front_Retail,            !- Name
    0.0000,                  !- Direction of Relative North {deg}
    29.1350,                 !- X Origin {m}
    0.0000,                  !- Y Origin {m}
    0.0000,                  !- Z Origin {m}
    1,                       !- Type
    1.0000,                  !- Multiplier
    -9999.0000,              !- Ceiling Height {m}
    919.9410,                !- Volume {m3}
    autocalculate,           !- Floor Area {m2}
    ,                        !- Zone Inside Convection Algorithm
    ,                        !- Zone Outside Convection Algorithm
    Yes;                     !- Part of Total Floor Area

  Zone,
    Front_Entry,             !- Name
    0.0000,                  !- Direction of Relative North {deg}
    25.1350,                 !- X Origin {m}
    0.0000,                  !- Y Origin {m}
    0.0000,                  !- Z Origin {m}
    1,                       !- Type
    1.0000,                  !- Multiplier
    -9999.0000,              !- Ceiling Height {m}
    73.2000,                 !- Volume {m3}
    autocalculate,           !- Floor Area {m2}
    ,                        !- Zone Inside Convection Algorithm
    ,                        !- Zone Outside Convection Algorithm
    Yes;                     !- Part of Total Floor Area


  Construction:FfactorGroundFloor,
    S_RearStairsFlr1_0_0_0_Ffactor,  !- Name
    1.26363,   !- F-Factor
    20.07186272615604,   !- Area
    10.668584;   !- PerimeterExposed

  Construction:FfactorGroundFloor,
    S_CorridorFlr1_0_0_0_Ffactor,  !- Name
    1.26363,   !- F-Factor
    150.5057728480299,   !- Area
    9.753600000000002;   !- PerimeterExposed

  Construction:FfactorGroundFloor,
    S_RearStorageFlr1_0_0_0_Ffactor,  !- Name
    1.26363,   !- F-Factor
    20.07328709329994,   !- Area
    10.669168000099997;   !- PerimeterExposed

  Construction:FfactorGroundFloor,
    S_FrontLoungeFlr1_0_0_0_Ffactor,  !- Name
    1.26363,   !- F-Factor
    163.0564054103927,   !- Area
    28.0421840002;   !- PerimeterExposed

  Construction:FfactorGroundFloor,
    S_RestroomFlr1_0_0_0_Ffactor,  !- Name
    1.26363,   !- F-Factor
    32.61128108080749,   !- Area
    3.962399999999999;   !- PerimeterExposed

  Construction:FfactorGroundFloor,
    S_MeetingRoomFlr1_0_0_0_Ffactor,  !- Name
    1.26363,   !- F-Factor
    80.27392264601582,   !- Area
    9.753600000000002;   !- PerimeterExposed

  Construction:FfactorGroundFloor,
    S_MechanicalRoomFlr1_0_0_0_Ffactor,  !- Name
    1.26363,   !- F-Factor
    32.61128108181339,   !- Area
    3.962400000099997;   !- PerimeterExposed

  Construction:FfactorGroundFloor,
    S_GuestRoom101_0_0_0_Ffactor,  !- Name
    1.26363,   !- F-Factor
    32.61128108140184,   !- Area
    3.9624000000000024;   !- PerimeterExposed

  Construction:FfactorGroundFloor,
    S_GuestRoom102_0_0_0_Ffactor,  !- Name
    1.26363,   !- F-Factor
    32.61128108140184,   !- Area
    3.9623999999999953;   !- PerimeterExposed

  Construction:FfactorGroundFloor,
    S_GuestRoom103_0_0_0_Ffactor,  !- Name
    1.26363,   !- F-Factor
    32.61128108080749,   !- Area
    3.9624000000000024;   !- PerimeterExposed

  Construction:FfactorGroundFloor,
    S_GuestRoom104_0_0_0_Ffactor,  !- Name
    1.26363,   !- F-Factor
    32.60896705728214,   !- Area
    3.9624000000000024;   !- PerimeterExposed

  Construction:FfactorGroundFloor,
    S_GuestRoom105_0_0_0_Ffactor,  !- Name
    1.26363,   !- F-Factor
    32.60896704039624,   !- Area
    3.9623999999999953;   !- PerimeterExposed

  Construction:FfactorGroundFloor,
    S_EmployeeLoungeFlr1_0_0_0_Ffactor,  !- Name
    1.26363,   !- F-Factor
    32.60896704039624,   !- Area
    3.9624000000000024;   !- PerimeterExposed

  Construction:FfactorGroundFloor,
    S_LaundryRoomFlr1_0_0_0_Ffactor,  !- Name
    1.26363,   !- F-Factor
    97.82690112160037,   !- Area
    11.887200000100002;   !- PerimeterExposed

  Construction:FfactorGroundFloor,
    S_ElevatorCoreFlr1_0_0_0_Ffactor,  !- Name
    1.26363,   !- F-Factor
    15.050292480365783,   !- Area
    1.8287999999999975;   !- PerimeterExposed

  Construction:FfactorGroundFloor,
    S_ExerciseCenterFlr1_0_0_0_Ffactor,  !- Name
    1.26363,   !- F-Factor
    32.6089670568706,   !- Area
    3.962399999999999;   !- PerimeterExposed

  Construction:FfactorGroundFloor,
    S_FrontOfficeFlr1_0_0_0_Ffactor,  !- Name
    1.26363,   !- F-Factor
    130.4358681619965,   !- Area
    15.8496000001;   !- PerimeterExposed

  Construction:FfactorGroundFloor,
    S_FrontStairsFlr1_0_0_0_Ffactor,  !- Name
    1.26363,   !- F-Factor
    20.067056639999997,   !- Area
    10.668000000000001;   !- PerimeterExposed

  Construction:FfactorGroundFloor,
    S_FrontStorageFlr1_0_0_0_Ffactor,  !- Name
    1.26363,   !- F-Factor
    12.541910400304815,   !- Area
    1.524;   !- PerimeterExposed


Construction,
    NonresSkylight_U_1.02_SHGC_0.49,  !- Name
    Nonres Skylight Glazing Layer;  !- Outside Layer

WindowMaterial:SimpleGlazingSystem,
    Nonres Skylight Glazing Layer,  !- Name
    5.7918252,               !- U-Factor {W/m2-K}
    0.49,                    !- Solar Heat Gain Coefficient
    0.49;                    !- Visible Transmittance

!-   ===========  ALL OBJECTS IN CLASS: BUILDINGSURFACE:DETAILED ===========

 BuildingSurface:Detailed,
    Back_Space_Floor,        !- Name
    Floor,                   !- Surface Type
    Back_Space_Floor_Ffactor,      !- Construction Name
    Back_Space,              !- Zone Name
    GroundFCfactorMethod,    !- Outside Boundary Condition
    ,                        !- Outside Boundary Condition Object
    NoSun,                   !- Sun Exposure
    NoWind,                  !- Wind Exposure
    AutoCalculate,           !- View Factor to Ground
    4,                       !- Number of Vertices
    54.270000000000,7.000000000000,0.000000000000,  !- X,Y,Z ==> Vertex 1 {m}
    54.270000000000,0.000000000000,0.000000000000,  !- X,Y,Z ==> Vertex 2 {m}
    0.000000000000,0.000000000000,0.000000000000,  !- X,Y,Z ==> Vertex 3 {m}
    0.000000000000,7.000000000000,0.000000000000;  !- X,Y,Z ==> Vertex 4 {m}

  BuildingSurface:Detailed,
    Back_Space_Roof,         !- Name
    Roof,                    !- Surface Type
    nonres_roof,             !- Construction Name
    Back_Space,              !- Zone Name
    Outdoors,                !- Outside Boundary Condition
    ,                        !- Outside Boundary Condition Object
    SunExposed,              !- Sun Exposure
    WindExposed,             !- Wind Exposure
    AutoCalculate,           !- View Factor to Ground
    4,                       !- Number of Vertices
    0.000000000000,7.000000000000,6.096000000000,  !- X,Y,Z ==> Vertex 1 {m}
    0.000000000000,0.000000000000,6.096000000000,  !- X,Y,Z ==> Vertex 2 {m}
    54.270000000000,0.000000000000,6.096000000000,  !- X,Y,Z ==> Vertex 3 {m}
    54.270000000000,7.000000000000,6.096000000000;  !- X,Y,Z ==> Vertex 4 {m}

  BuildingSurface:Detailed,
    Back_Space_Wall_East,    !- Name
    Wall,                    !- Surface Type
    nonres_ext_wall,         !- Construction Name
    Back_Space,              !- Zone Name
    Outdoors,                !- Outside Boundary Condition
    ,                        !- Outside Boundary Condition Object
    SunExposed,              !- Sun Exposure
    WindExposed,             !- Wind Exposure
    AutoCalculate,           !- View Factor to Ground
    4,                       !- Number of Vertices
    54.270000000000,0.000000000000,6.096000000000,  !- X,Y,Z ==> Vertex 1 {m}
    54.270000000000,0.000000000000,0.000000000000,  !- X,Y,Z ==> Vertex 2 {m}
    54.270000000000,7.000000000000,0.000000000000,  !- X,Y,Z ==> Vertex 3 {m}
    54.270000000000,7.000000000000,6.096000000000;  !- X,Y,Z ==> Vertex 4 {m}

  BuildingSurface:Detailed,
    Back_Space_Wall_North,   !- Name
    Wall,                    !- Surface Type
    nonres_ext_wall,         !- Construction Name
    Back_Space,              !- Zone Name
    Outdoors,                !- Outside Boundary Condition
    ,                        !- Outside Boundary Condition Object
    SunExposed,              !- Sun Exposure
    WindExposed,             !- Wind Exposure
    AutoCalculate,           !- View Factor to Ground
    4,                       !- Number of Vertices
    54.270000000000,7.000000000000,6.096000000000,  !- X,Y,Z ==> Vertex 1 {m}
    54.270000000000,7.000000000000,0.000000000000,  !- X,Y,Z ==> Vertex 2 {m}
    0.000000000000,7.000000000000,0.000000000000,  !- X,Y,Z ==> Vertex 3 {m}
    0.000000000000,7.000000000000,6.096000000000;  !- X,Y,Z ==> Vertex 4 {m}

  BuildingSurface:Detailed,
    Back_Space_Wall_West,    !- Name
    Wall,                    !- Surface Type
    nonres_ext_wall,         !- Construction Name
    Back_Space,              !- Zone Name
    Outdoors,                !- Outside Boundary Condition
    ,                        !- Outside Boundary Condition Object
    SunExposed,              !- Sun Exposure
    WindExposed,             !- Wind Exposure
    AutoCalculate,           !- View Factor to Ground
    4,                       !- Number of Vertices
    0.000000000000,7.000000000000,6.096000000000,  !- X,Y,Z ==> Vertex 1 {m}
    0.000000000000,7.000000000000,0.000000000000,  !- X,Y,Z ==> Vertex 2 {m}
    0.000000000000,0.000000000000,0.000000000000,  !- X,Y,Z ==> Vertex 3 {m}
    0.000000000000,0.000000000000,6.096000000000;  !- X,Y,Z ==> Vertex 4 {m}

  BuildingSurface:Detailed,
    Back_Space_Wall_South,   !- Name
    Wall,                    !- Surface Type
    int_wall,                !- Construction Name
    Back_Space,              !- Zone Name
    Surface,                 !- Outside Boundary Condition
    Core_Retail_Wall_North,  !- Outside Boundary Condition Object
    NoSun,                   !- Sun Exposure
    NoWind,                  !- Wind Exposure
    AutoCalculate,           !- View Factor to Ground
    4,                       !- Number of Vertices
    0.000000000000,0.000000000000,6.096000000000,  !- X,Y,Z ==> Vertex 1 {m}
    0.000000000000,0.000000000000,0.000000000000,  !- X,Y,Z ==> Vertex 2 {m}
    54.270000000000,0.000000000000,0.000000000000,  !- X,Y,Z ==> Vertex 3 {m}
    54.270000000000,0.000000000000,6.096000000000;  !- X,Y,Z ==> Vertex 4 {m}

  BuildingSurface:Detailed,
    Core_Retail_Floor,       !- Name
    Floor,                   !- Surface Type
    Core_Retail_Floor_Ffactor,      !- Construction Name
    Core_Retail,             !- Zone Name
    GroundFCfactorMethod,    !- Outside Boundary Condition
    ,                        !- Outside Boundary Condition Object
    NoSun,                   !- Sun Exposure
    NoWind,                  !- Wind Exposure
    AutoCalculate,           !- View Factor to Ground
    8,                       !- Number of Vertices
    54.270000000000,29.270000000000,0.000000000000,  !- X,Y,Z ==> Vertex 1 {m}
    54.270000000000,0.000000000000,0.000000000000,  !- X,Y,Z ==> Vertex 2 {m}
    29.135000000000,0.000000000000,0.000000000000,  !- X,Y,Z ==> Vertex 3 {m}
    29.135000000000,-3.000000000000,0.000000000000,  !- X,Y,Z ==> Vertex 4 {m}
    25.135000000000,-3.000000000000,0.000000000000,  !- X,Y,Z ==> Vertex 5 {m}
    25.135000000000,0.000000000000,0.000000000000,  !- X,Y,Z ==> Vertex 6 {m}
    0.000000000000,0.000000000000,0.000000000000,  !- X,Y,Z ==> Vertex 7 {m}
    0.000000000000,29.270000000000,0.000000000000;  !- X,Y,Z ==> Vertex 8 {m}

  BuildingSurface:Detailed,
    Core_Retail_Wall_South_3,!- Name
    Wall,                    !- Surface Type
    int_wall,                !- Construction Name
    Core_Retail,             !- Zone Name
    Surface,                 !- Outside Boundary Condition
    Front_Retail_Wall_North, !- Outside Boundary Condition Object
    NoSun,                   !- Sun Exposure
    NoWind,                  !- Wind Exposure
    AutoCalculate,           !- View Factor to Ground
    4,                       !- Number of Vertices
    29.135000000000,0.000000000000,6.096000000000,  !- X,Y,Z ==> Vertex 1 {m}
    29.135000000000,0.000000000000,0.000000000000,  !- X,Y,Z ==> Vertex 2 {m}
    54.270000000000,0.000000000000,0.000000000000,  !- X,Y,Z ==> Vertex 3 {m}
    54.270000000000,0.000000000000,6.096000000000;  !- X,Y,Z ==> Vertex 4 {m}

  BuildingSurface:Detailed,
    Core_Retail_Wall_South_1,!- Name
    Wall,                    !- Surface Type
    int_wall,                !- Construction Name
    Core_Retail,             !- Zone Name
    Surface,                 !- Outside Boundary Condition
    Point_Of_Sale_Wall_North,!- Outside Boundary Condition Object
    NoSun,                   !- Sun Exposure
[...]
    23.88889,                !- Maximum Value of x
    23.88889,                !- Minimum Value of y
    46.11111,                !- Maximum Value of y
    ,                        !- Minimum Curve Output
    ,                        !- Maximum Curve Output
    Temperature,             !- Input Unit Type for X
    Temperature,             !- Input Unit Type for Y
    Dimensionless;           !- Output Unit Type

Curve:Biquadratic,
    HPACCoolCapFT Speed 3,   !- Name
    0.476428E+00,            !- Coefficient1 Constant
    0.401147E-01,            !- Coefficient2 x
    0.226411E-03,            !- Coefficient3 x**2
    -0.827136E-03,           !- Coefficient4 y
    -0.732240E-05,           !- Coefficient5 y**2
    -0.446278E-03,           !- Coefficient6 x*y
    12.77778,                !- Minimum Value of x
    23.88889,                !- Maximum Value of x
    23.88889,                !- Minimum Value of y
    46.11111,                !- Maximum Value of y
    ,                        !- Minimum Curve Output
    ,                        !- Maximum Curve Output
    Temperature,             !- Input Unit Type for X
    Temperature,             !- Input Unit Type for Y
    Dimensionless;           !- Output Unit Type

Curve:Biquadratic,
    HPACCoolCapFT Speed 4,   !- Name
    0.476428E+00,            !- Coefficient1 Constant
    0.401147E-01,            !- Coefficient2 x
    0.226411E-03,            !- Coefficient3 x**2
    -0.827136E-03,           !- Coefficient4 y
    -0.732240E-05,           !- Coefficient5 y**2
    -0.446278E-03,           !- Coefficient6 x*y
    12.77778,                !- Minimum Value of x
    23.88889,                !- Maximum Value of x
    23.88889,                !- Minimum Value of y
    46.11111,                !- Maximum Value of y
    ,                        !- Minimum Curve Output
    ,                        !- Maximum Curve Output
    Temperature,             !- Input Unit Type for X
    Temperature,             !- Input Unit Type for Y
    Dimensionless;           !- Output Unit Type




! operation condition varies
Curve:Biquadratic,
    HAPCCoolWHFT Speed 1,    !- Name
    1.0,                     !- Coefficient1 Constant
    0.0,                     !- Coefficient2 x
    0.0,                     !- Coefficient3 x**2
    0.0,                     !- Coefficient4 y
    0.0,                     !- Coefficient5 y**2
    0.0,                     !- Coefficient6 x*y
    0,                       !- Minimum Value of x
    50,                      !- Maximum Value of x
    0,                       !- Minimum Value of y
    50,                      !- Maximum Value of y
    ,                        !- Minimum Curve Output
    ,                        !- Maximum Curve Output
    Temperature,             !- Input Unit Type for X
    Temperature,             !- Input Unit Type for Y
    Dimensionless;           !- Output Unit Type

! operation condition varies
Curve:Biquadratic,
    HAPCCoolWHFT Speed 2,    !- Name
    1.0,                     !- Coefficient1 Constant
    0.0,                     !- Coefficient2 x
    0.0,                     !- Coefficient3 x**2
    0.0,                     !- Coefficient4 y
    0.0,                     !- Coefficient5 y**2
    0.0,                     !- Coefficient6 x*y
    0,                       !- Minimum Value of x
    50,                      !- Maximum Value of x
    0,                       !- Minimum Value of y
    50,                      !- Maximum Value of y
    ,                        !- Minimum Curve Output
    ,                        !- Maximum Curve Output
    Temperature,             !- Input Unit Type for X
    Temperature,             !- Input Unit Type for Y
    Dimensionless;           !- Output Unit Type

! operation condition varies
Curve:Biquadratic,
    HAPCCoolWHFT Speed 3,    !- Name
    1.0,                     !- Coefficient1 Constant
    0.0,                     !- Coefficient2 x
    0.0,                     !- Coefficient3 x**2
    0.0,                     !- Coefficient4 y
    0.0,                     !- Coefficient5 y**2
    0.0,                     !- Coefficient6 x*y
    0,                       !- Minimum Value of x
    50,                      !- Maximum Value of x
    0,                       !- Minimum Value of y
    50,                      !- Maximum Value of y
    ,                        !- Minimum Curve Output
    ,                        !- Maximum Curve Output
    Temperature,             !- Input Unit Type for X
    Temperature,             !- Input Unit Type for Y
    Dimensionless;           !- Output Unit Type

! operation condition varies
Curve:Biquadratic,
    HAPCCoolWHFT Speed 4,    !- Name
    1.0,                     !- Coefficient1 Constant
    0.0,                     !- Coefficient2 x
    0.0,                     !- Coefficient3 x**2
    0.0,                     !- Coefficient4 y
    0.0,                     !- Coefficient5 y**2
    0.0,                     !- Coefficient6 x*y
    0,                       !- Minimum Value of x
    50,                      !- Maximum Value of x
    0,                       !- Minimum Value of y
    50,                      !- Maximum Value of y
    ,                        !- Minimum Curve Output
    ,                        !- Maximum Curve Output
    Temperature,             !- Input Unit Type for X
    Temperature,             !- Input Unit Type for Y
    Dimensionless;           !- Output Unit Type


!-   ===========  ALL OBJECTS IN CLASS: OUTPUT:VARIABLEDICTIONARY ===========

Output:VariableDictionary,
    regular,                 !- Key Field
    Name;                    !- Sort Option


!-   ===========  ALL OBJECTS IN CLASS: OUTPUT:TABLE:SUMMARYREPORTS ===========

!  Output:Variable,*,Site Outdoor Air Drybulb Temperature,Hourly;
!  Output:Variable,*,Site Outdoor Air Wetbulb Temperature,Hourly;
!  Output:Variable,HVACOperationSchd,Schedule Value,Hourly;
!
!  ! Outdoor Air Flow
!
!  Output:Variable,PSZ-AC:1_OAInlet Node,System Node VolFlowRate,Hourly;
!  Output:Variable,PSZ-AC:2_OAInlet Node,System Node VolFlowRate,Hourly;
!  Output:Variable,PSZ-AC:3_OAInlet Node,System Node VolFlowRate,Hourly;
!  Output:Variable,PSZ-AC:4_OAInlet Node,System Node VolFlowRate,Hourly;
!  Output:Variable,PSZ-AC:5_OAInlet Node,System Node VolFlowRate,Hourly;
!
!  ! Return Air Flow
!
!  Output:Variable,PSZ-AC:1 Supply Equipment Inlet Node,System Node VolFlowRate,Hourly;
!  Output:Variable,PSZ-AC:2 Supply Equipment Inlet Node,System Node VolFlowRate,Hourly;
!  Output:Variable,PSZ-AC:3 Supply Equipment Inlet Node,System Node VolFlowRate,Hourly;
!  Output:Variable,PSZ-AC:4 Supply Equipment Inlet Node,System Node VolFlowRate,Hourly;
!  Output:Variable,PSZ-AC:5 Supply Equipment Inlet Node,System Node VolFlowRate,Hourly;
!
!  ! Return Air Tdb
!
!  Output:Variable,PSZ-AC:1 Supply Equipment Inlet Node,System Node Temperature,Hourly;
!  Output:Variable,PSZ-AC:2 Supply Equipment Inlet Node,System Node Temperature,Hourly;
!  Output:Variable,PSZ-AC:3 Supply Equipment Inlet Node,System Node Temperature,Hourly;
!  Output:Variable,PSZ-AC:4 Supply Equipment Inlet Node,System Node Temperature,Hourly;
!  Output:Variable,PSZ-AC:5 Supply Equipment Inlet Node,System Node Temperature,Hourly;
!
!  ! Return Air Twb
!
!  Output:Variable,PSZ-AC:1 Supply Equipment Inlet Node,System Node Wetbulb Temperature,Hourly;
!  Output:Variable,PSZ-AC:2 Supply Equipment Inlet Node,System Node Wetbulb Temperature,Hourly;
!  Output:Variable,PSZ-AC:3 Supply Equipment Inlet Node,System Node Wetbulb Temperature,Hourly;
!  Output:Variable,PSZ-AC:4 Supply Equipment Inlet Node,System Node Wetbulb Temperature,Hourly;
!  Output:Variable,PSZ-AC:5 Supply Equipment Inlet Node,System Node Wetbulb Temperature,Hourly;
!
!  ! supply Air Flow
!
!  Output:Variable,PSZ-AC:1 Supply Equipment Outlet Node,System Node VolFlowRate,Hourly;
!  Output:Variable,PSZ-AC:2 Supply Equipment Outlet Node,System Node VolFlowRate,Hourly;
!  Output:Variable,PSZ-AC:3 Supply Equipment Outlet Node,System Node VolFlowRate,Hourly;
!  Output:Variable,PSZ-AC:4 Supply Equipment Outlet Node,System Node VolFlowRate,Hourly;
!  Output:Variable,PSZ-AC:5 Supply Equipment Outlet Node,System Node VolFlowRate,Hourly;
!
!  ! supply Air Tdb
!
!  Output:Variable,PSZ-AC:1 Supply Equipment Outlet Node,System Node Temperature,Hourly;
!  Output:Variable,PSZ-AC:2 Supply Equipment Outlet Node,System Node Temperature,Hourly;
!  Output:Variable,PSZ-AC:3 Supply Equipment Outlet Node,System Node Temperature,Hourly;
!  Output:Variable,PSZ-AC:4 Supply Equipment Outlet Node,System Node Temperature,Hourly;
!  Output:Variable,PSZ-AC:5 Supply Equipment Outlet Node,System Node Temperature,Hourly;
!
!  ! supply Air Twb
!
!  Output:Variable,PSZ-AC:1 Supply Equipment Outlet Node,System Node Wetbulb Temperature,Hourly;
!  Output:Variable,PSZ-AC:2 Supply Equipment Outlet Node,System Node Wetbulb Temperature,Hourly;
!  Output:Variable,PSZ-AC:3 Supply Equipment Outlet Node,System Node Wetbulb Temperature,Hourly;
!  Output:Variable,PSZ-AC:4 Supply Equipment Outlet Node,System Node Wetbulb Temperature,Hourly;
!  Output:Variable,PSZ-AC:5 Supply Equipment Outlet Node,System Node Wetbulb Temperature,Hourly;
!
!  ! Coil Load
!
!  Output:Variable,*,Air System Cooling Coil Total Cooling Energy,Hourly;
!  Output:Variable,*,Air System Heating Coil Total Heating Energy,Hourly;
!
!  ! SHW
!
!  Output:Variable,*,Water Heater Heating Rate,Hourly;
!
!  ! Fan and Pump
!
!  Output:Variable,*,Fan Electric Power,hourly; !- HVAC Average W
!  Output:Variable,*,Pump Electric Power,hourly; !- HVAC Average W
!  Output:Variable,*,Humidifier Electric Power,hourly; !- HVAC Average W
!
!  ! Utility and Submeter
!
!    Output:Meter,Electricity:Facility,Hourly;
!    Output:Meter,Gas:Facility,Hourly;
!    Output:Meter,InteriorLights:Electricity,Hourly;
!    Output:Meter,ExteriorLights:Electricity,Hourly;
!    Output:Meter,InteriorEquipment:Electricity,Hourly;
!    Output:Meter,ExteriorEquipment:Electricity,Hourly;
!    Output:Meter,Fans:Electricity,Hourly;
!    Output:Meter,Pumps:Electricity,Hourly;
!    Output:Meter,Heating:Electricity,Hourly;
!    Output:Meter,Cooling:Electricity,Hourly;
!    Output:Meter,HeatRejection:Electricity,Hourly;
!    Output:Meter,Humidifier:Electricity,Hourly;
!    Output:Meter,HeatRecovery:Electricity,Hourly;
!    Output:Meter,DHW:Electricity,Hourly;
!    Output:Meter,Cogeneration:Electricity,Hourly;
!    Output:Meter,Refrigeration:Electricity,Hourly;
!    Output:Meter,WaterSystems:Electricity,Hourly;
!
!    Output:Meter,InteriorLights:Gas,Hourly;
!    Output:Meter,ExteriorLights:Gas,Hourly;
!    Output:Meter,InteriorEquipment:Gas,Hourly;
!    Output:Meter,ExteriorEquipment:Gas,Hourly;
!    Output:Meter,Fans:Gas,Hourly;
!    Output:Meter,Pumps:Gas,Hourly;
!    Output:Meter,Heating:Gas,Hourly;
!    Output:Meter,Cooling:Gas,Hourly;
!    Output:Meter,HeatRejection:Gas,Hourly;
!    Output:Meter,Humidifier:Gas,Hourly;
!    Output:Meter,HeatRecovery:Gas,Hourly;
!    Output:Meter,DHW:Gas,Hourly;
!    Output:Meter,Cogeneration:Gas,Hourly;
!    Output:Meter,Refrigeration:Gas,Hourly;
!    Output:Meter,WaterSystems:Gas,Hourly;
Output:Table:SummaryReports,
    AllSummaryAndMonthly;    !- Report 1 Name


!-   ===========  ALL OBJECTS IN CLASS: OUTPUT:TABLE:MONTHLY ===========

Output:Table:Monthly,
    NameHolderMonthlySummary TaskPurpose ProgressIndicator,  !- Name
    3,                       !- Digits After Decimal
    Site Outdoor Air Drybulb,!- Variable or Meter 1 Name
    SumOrAverage,            !- Aggregation Type for Variable or Meter 1
    Heating:Gas,             !- Variable or Meter 2 Name
    SumOrAverage;            !- Aggregation Type for Variable or Meter 2

Output:Table:Monthly,
    NameHolderMonthlySummary CodeName ASHRAE901,  !- Name
    3,                       !- Digits After Decimal
    Site Outdoor Air Drybulb,!- Variable or Meter 1 Name
    SumOrAverage,            !- Aggregation Type for Variable or Meter 1
    Heating:Gas,             !- Variable or Meter 2 Name
    SumOrAverage;            !- Aggregation Type for Variable or Meter 2

Output:Table:Monthly,
    NameHolderMonthlySummary CodeYear 2019,  !- Name
    3,                       !- Digits After Decimal
    Site Outdoor Air Drybulb,!- Variable or Meter 1 Name
    SumOrAverage,            !- Aggregation Type for Variable or Meter 1
    Heating:Gas,             !- Variable or Meter 2 Name
    SumOrAverage;            !- Aggregation Type for Variable or Meter 2

Output:Table:Monthly,
    NameHolderMonthlySummary CodeAmendment NoneAmend,  !- Name
    3,                       !- Digits After Decimal
    Site Outdoor Air Drybulb,!- Variable or Meter 1 Name
    SumOrAverage,            !- Aggregation Type for Variable or Meter 1
    Heating:Gas,             !- Variable or Meter 2 Name
    SumOrAverage;            !- Aggregation Type for Variable or Meter 2

Output:Table:Monthly,
    NameHolderMonthlySummary PrototypeName OfficeSmall,  !- Name
    3,                       !- Digits After Decimal
    Site Outdoor Air Drybulb,!- Variable or Meter 1 Name
    SumOrAverage,            !- Aggregation Type for Variable or Meter 1
    Heating:Gas,             !- Variable or Meter 2 Name
    SumOrAverage;            !- Aggregation Type for Variable or Meter 2

Output:Table:Monthly,
    NameHolderMonthlySummary TaskScope National,  !- Name
    3,                       !- Digits After Decimal
    Site Outdoor Air Drybulb,!- Variable or Meter 1 Name
    SumOrAverage,            !- Aggregation Type for Variable or Meter 1
    Heating:Gas,             !- Variable or Meter 2 Name
    SumOrAverage;            !- Aggregation Type for Variable or Meter 2

Output:Table:Monthly,
    NameHolderMonthlySummary State National,  !- Name
    3,                       !- Digits After Decimal
    Site Outdoor Air Drybulb,!- Variable or Meter 1 Name
    SumOrAverage,            !- Aggregation Type for Variable or Meter 1
    Heating:Gas,             !- Variable or Meter 2 Name
    SumOrAverage;            !- Aggregation Type for Variable or Meter 2

Output:Table:Monthly,
    NameHolderMonthlySummary ClimateZone 4A,  !- Name
    3,                       !- Digits After Decimal
    Site Outdoor Air Drybulb,!- Variable or Meter 1 Name
    SumOrAverage,            !- Aggregation Type for Variable or Meter 1
    Heating:Gas,             !- Variable or Meter 2 Name
    SumOrAverage;            !- Aggregation Type for Variable or Meter 2

Output:Table:Monthly,
    NameHolderMonthlySummary RepresentCity USA_NY_NewYork,  !- Name
    3,                       !- Digits After Decimal
    Site Outdoor Air Drybulb,!- Variable or Meter 1 Name
    SumOrAverage,            !- Aggregation Type for Variable or Meter 1
    Heating:Gas,             !- Variable or Meter 2 Name
    SumOrAverage;            !- Aggregation Type for Variable or Meter 2


!-   ===========  ALL OBJECTS IN CLASS: OUTPUTCONTROL:TABLE:STYLE ===========

OutputControl:Table:Style,
    CommaAndHTML;            !- Column Separator


!-   ===========  ALL OBJECTS IN CLASS: OUTPUTCONTROL:REPORTINGTOLERANCES ===========

OutputControl:ReportingTolerances,
    0.556,                   !- Tolerance for Time Heating Setpoint Not Met {deltaC}
    0.556;                   !- Tolerance for Time Cooling Setpoint Not Met {deltaC}


!-   ===========  ALL OBJECTS IN CLASS: OUTPUT:VARIABLE ===========

Output:Variable,
    *,                       !- Key Value
    Zone Mean Air Temperature,  !- Variable Name
    Timestep;                !- Reporting Frequency

Output:Variable,
    *,                       !- Key Value
    Cooling Coil Total Cooling Rate ,  !- Variable Name
    Timestep;                !- Reporting Frequency

Output:Variable,
    *,                       !- Key Value
    Heating Coil Heating Rate ,  !- Variable Name
    Timestep;                !- Reporting Frequency

Output:Variable,
    *,                       !- Key Value
    Unitary System DX Coil Speed Level ,  !- Variable Name
    Timestep;                !- Reporting Frequency

Output:Variable,
    *,                       !- Key Value
    Unitary System Compressor Part Load Ratio ,  !- Variable Name
    Timestep;                !- Reporting Frequency

Output:Variable,
    *,                       !- Key Value
    Fan Electric Power ,     !- Variable Name
    Timestep;                !- Reporting Frequency

Output:Variable,
    *,                       !- Key Value
    Fan Air Mass Flow Rate , !- Variable Name
    Timestep;                !- Reporting Frequency

Output:Variable,
    *,                       !- Key Value
    Fan2MaxGlobal,           !- Variable Name
    Timestep;                !- Reporting Frequency

Output:Variable,
    *,                       !- Key Value
    Unitary System Total Heating Rate ,  !- Variable Name
    Timestep;                !- Reporting Frequency

Output:Variable,
    *,                       !- Key Value
    Fan1MaxGlobal,           !- Variable Name
    Timestep;                !- Reporting Frequency

Output:Variable,
    *,                       !- Key Value
    Fan3MaxGlobal,           !- Variable Name
    Timestep;                !- Reporting Frequency

Output:Variable,
    *,                       !- Key Value
    Fan4MaxGlobal,           !- Variable Name
    Timestep;                !- Reporting Frequency

Output:Variable,
    *,                       !- Key Value
    Fan5MaxGlobal,           !- Variable Name
    Timestep;                !- Reporting Frequency

Output:Variable,
    *,                       !- Key Value
    Heating Coil Electric Power ,  !- Variable Name
    Hourly;                  !- Reporting Frequency

Output:Variable,
    *,                       !- Key Value
    Heating Coil Gas Rate,   !- Variable Name
    Hourly;                  !- Reporting Frequency


!-   ===========  ALL OBJECTS IN CLASS: OUTPUT:METER:METERFILEONLY ===========

Output:Meter:MeterFileOnly,
    Electricity:Facility,    !- Key Name
    Hourly;                  !- Reporting Frequency

Output:Meter:MeterFileOnly,
    ElectricityNet:Facility, !- Key Name
    Hourly;                  !- Reporting Frequency

Output:Meter:MeterFileOnly,
    Gas:Facility,            !- Key Name
    Hourly;                  !- Reporting Frequency

!-   ===========  ALL OBJECTS IN CLASS: UTILITYCOST:CHARGE:SIMPLE ===========

UtilityCost:Charge:Simple,
    Electricity Charges,     !- Utility Cost Charge Simple Name
    Electricity,             !- Tariff Name
    totalEnergy,             !- Source Variable
    Annual,                  !- Season
    EnergyCharges,           !- Category Variable Name
    {{Blended_Electricity_Rate}};                    !- Cost per Unit Value or Variable Name

UtilityCost:Charge:Simple,
    NaturalGas Charges,      !- Utility Cost Charge Simple Name
    NaturalGas,              !- Tariff Name
    totalEnergy,             !- Source Variable
    Annual,                  !- Season
    EnergyCharges,           !- Category Variable Name
    {{Blended_NaturalGas_Rate}};                    !- Cost per Unit Value or Variable Name


!-   ===========  ALL OBJECTS IN CLASS: LIFECYCLECOST:PARAMETERS ===========

LifeCycleCost:Parameters,
    LCC,                     !- Name
    EndOfYear,               !- Discounting Convention
    ConstantDollar,          !- Inflation Approach
    {{RealDiscountRate}},                    !- Real Discount Rate
    ,                        !- Nominal Discount Rate
    ,                        !- Inflation
    January,                 !- Base Date Month
    2022,                    !- Base Date Year
    January,                 !- Service Date Month
    2022,                    !- Service Date Year
    {{RTU_Lifetime}},                      !- Length of Study Period in Years
    ,                        !- Tax rate
    None;                    !- Depreciation Method


!-   ===========  ALL OBJECTS IN CLASS: LIFECYCLECOST:NONRECURRINGCOST ===========



