Version,9.0;
!-   ===========  ALL OBJECTS IN CLASS: SIMULATIONCONTROL ===========

  SimulationControl,
    Yes,                     !- Do Zone Sizing Calculation
    Yes,                     !- Do System Sizing Calculation
    Yes,                     !- Do Plant Sizing Calculation
    No,         !- Run Simulation for Sizing Periods
    YES;                      !- Run Simulation for Weather File Run Periods

!-   ===========  ALL OBJECTS IN CLASS: BUILDING ===========

Building,
    RestaurantSitDown,       !- Name
    0.0000,                  !- North Axis {deg}
    City,                    !- Terrain
    0.0400,                  !- Loads Convergence Tolerance Value {W}
    0.2000,                  !- Temperature Convergence Tolerance Value {deltaC}
    FullInteriorAndExterior, !- Solar Distribution
    25,                      !- Maximum Number of Warmup Days
    6;                       !- Minimum Number of Warmup Days

!-   ===========  ALL OBJECTS IN CLASS: SHADOWCALCULATION ===========

  ShadowCalculation,
    AverageOverDaysInFrequency,  !- Calculation Method
    30,                      !- Calculation Frequency
    15000;                   !- Maximum Figures in Shadow Overlap Calculations

!-   ===========  ALL OBJECTS IN CLASS: SURFACECONVECTIONALGORITHM:INSIDE ===========

  SurfaceConvectionAlgorithm:Inside,TARP;

!-   ===========  ALL OBJECTS IN CLASS: SURFACECONVECTIONALGORITHM:OUTSIDE ===========

  SurfaceConvectionAlgorithm:Outside,TARP;

!-   ===========  ALL OBJECTS IN CLASS: HEATBALANCEALGORITHM ===========

  HeatBalanceAlgorithm,ConductionTransferFunction,200.0000;

!-   ===========  ALL OBJECTS IN CLASS: TIMESTEP ===========

  Timestep,6;

!-   ===========  ALL OBJECTS IN CLASS: CONVERGENCELIMITS ===========

  ConvergenceLimits,
    1,                       !- Minimum System Timestep {minutes}
    20;                      !- Maximum HVAC Iterations

!-   ===========  ALL OBJECTS IN CLASS: RUNPERIOD ===========

  RunPeriod,
    ,                        !- Name
    1,                       !- Begin Month
    1,                       !- Begin Day of Month
    ,                        !- Begin Year
    12,                      !- End Month
    31,                      !- End Day of Month
    ,                        !- End Year
    Sunday,                  !- Day of Week for Start Day
    No,                      !- Use Weather File Holidays and Special Days
    No,                      !- Use Weather File Daylight Saving Period
    No,                     !- Apply Weekend Holiday Rule
    Yes,                     !- Use Weather File Rain Indicators
    Yes;                     !- Use Weather File Snow Indicators

!-   ===========  ALL OBJECTS IN CLASS: RUNPERIODCONTROL:SPECIALDAYS ===========

  RunPeriodControl:SpecialDays,
    New Years Day,           !- Name
    January 1,               !- Start Date
    1,                       !- Duration {days}
    Holiday;                 !- Special Day Type

  RunPeriodControl:SpecialDays,
    Veterans Day,            !- Name
    November 11,             !- Start Date
    1,                       !- Duration {days}
    Holiday;                 !- Special Day Type

  RunPeriodControl:SpecialDays,
    Christmas,               !- Name
    December 25,             !- Start Date
    1,                       !- Duration {days}
    Holiday;                 !- Special Day Type

  RunPeriodControl:SpecialDays,
    Independence Day,        !- Name
    July 4,                  !- Start Date
    1,                       !- Duration {days}
    Holiday;                 !- Special Day Type

  RunPeriodControl:SpecialDays,
    MLK Day,                 !- Name
    3rd Monday in January,   !- Start Date
    1,                       !- Duration {days}
    Holiday;                 !- Special Day Type

  RunPeriodControl:SpecialDays,
    Presidents Day,          !- Name
    3rd Monday in February,  !- Start Date
    1,                       !- Duration {days}
    Holiday;                 !- Special Day Type

  RunPeriodControl:SpecialDays,
    Memorial Day,            !- Name
    Last Monday in May,      !- Start Date
    1,                       !- Duration {days}
    Holiday;                 !- Special Day Type

  RunPeriodControl:SpecialDays,
    Labor Day,               !- Name
    1st Monday in September, !- Start Date
    1,                       !- Duration {days}
    Holiday;                 !- Special Day Type

  RunPeriodControl:SpecialDays,
    Columbus Day,            !- Name
    2nd Monday in October,   !- Start Date
    1,                       !- Duration {days}
    Holiday;                 !- Special Day Type

  RunPeriodControl:SpecialDays,
    Thanksgiving,            !- Name
    4th Thursday in November,!- Start Date
    1,                       !- Duration {days}
    Holiday;                 !- Special Day Type

!-   ===========  ALL OBJECTS IN CLASS: RUNPERIODCONTROL:DAYLIGHTSAVINGTIME ===========

  RunPeriodControl:DaylightSavingTime,
    2nd Sunday in March,     !- Start Date
    1st Sunday in November;  !- End Date

!-   ===========  ALL OBJECTS IN CLASS: LOCATION ===========

{% include "climates" %}

!-   ===========  ALL OBJECTS IN CLASS: MATERIAL:REGULAR-R ===========


!-   ===========  ALL OBJECTS IN CLASS: SCHEDULETYPELIMITS ===========

  ScheduleTypeLimits,
    Any Number;              !- Name

  ScheduleTypeLimits,
    Fraction,                !- Name
    0.0,                     !- Lower Limit Value
    1.0,                     !- Upper Limit Value
    CONTINUOUS;              !- Numeric Type

  ScheduleTypeLimits,
    Temperature,             !- Name
    -60,                     !- Lower Limit Value
    200,                     !- Upper Limit Value
    CONTINUOUS;              !- Numeric Type

  ScheduleTypeLimits,
    On/Off,                  !- Name
    0,                       !- Lower Limit Value
    1,                       !- Upper Limit Value
    DISCRETE;                !- Numeric Type

  ScheduleTypeLimits,
    Control Type,            !- Name
    0,                       !- Lower Limit Value
    4,                       !- Upper Limit Value
    DISCRETE;                !- Numeric Type

  ScheduleTypeLimits,
    Humidity,                !- Name
    10,                      !- Lower Limit Value
    90,                      !- Upper Limit Value
    CONTINUOUS;              !- Numeric Type

  ScheduleTypeLimits,
    Number;                  !- Name

!-   ===========  ALL OBJECTS IN CLASS: SCHEDULE:COMPACT ===========

Schedule:Compact,
    BLDG_LIGHT_DINING_SCH,   !- Name
    Fraction,                !- Schedule Type Limits Name
    Through: 12/31,          !- Field 1
    For: Weekday,            !- Field 2
    Until: 5:00,             !- Field 3
    0.15,                    !- Field 4
    Until: 6:00,             !- Field 5
    0.2,                     !- Field 6
    Until: 8:00,             !- Field 7
    0.4,                     !- Field 8
    Until: 10:00,            !- Field 9
    0.6,                     !- Field 10
    Until: 22:00,            !- Field 11
    0.9,                     !- Field 12
    Until: 23:00,            !- Field 13
    0.5,                     !- Field 14
    Until: 24:00,            !- Field 15
    0.3,                     !- Field 16
    For: Saturday,           !- Field 17
    Until: 1:00,             !- Field 18
    0.2,                     !- Field 19
    Until: 6:00,             !- Field 20
    0.15,                    !- Field 21
    Until: 8:00,             !- Field 22
    0.3,                     !- Field 23
    Until: 10:00,            !- Field 24
    0.6,                     !- Field 25
    Until: 17:00,            !- Field 26
    0.8,                     !- Field 27
    Until: 22:00,            !- Field 28
    0.9,                     !- Field 29
    Until: 23:00,            !- Field 30
    0.5,                     !- Field 31
    Until: 24:00,            !- Field 32
    0.3,                     !- Field 33
    For: SummerDesignDay,    !- Field 34
    Until: 24:00,            !- Field 35
    1,                       !- Field 36
    For: WinterDesignDay,    !- Field 37
    Until: 24:00,            !- Field 38
    0,                       !- Field 39
    For: Sunday Holidays AllOtherDays,  !- Field 40
    Until: 1:00,             !- Field 41
    0.2,                     !- Field 42
    Until: 6:00,             !- Field 43
    0.15,                    !- Field 44
    Until: 8:00,             !- Field 45
    0.3,                     !- Field 46
    Until: 10:00,            !- Field 47
    0.5,                     !- Field 48
    Until: 16:00,            !- Field 49
    0.7,                     !- Field 50
    Until: 22:00,            !- Field 51
    0.6,                     !- Field 52
    Until: 23:00,            !- Field 53
    0.5,                     !- Field 54
    Until: 24:00,            !- Field 55
    0.3;                     !- Field 56

Schedule:Compact,
    BLDG_LIGHT_KITCHEN_SCH,  !- Name
    Fraction,                !- Schedule Type Limits Name
    Through: 12/31,          !- Field 1
    For: Weekday,            !- Field 2
    Until: 5:00,             !- Field 3
    0.15,                    !- Field 4
    Until: 6:00,             !- Field 5
    0.2,                     !- Field 6
    Until: 8:00,             !- Field 7
    0.4,                     !- Field 8
    Until: 10:00,            !- Field 9
    0.6,                     !- Field 10
    Until: 22:00,            !- Field 11
    0.9,                     !- Field 12
    Until: 23:00,            !- Field 13
    0.5,                     !- Field 14
    Until: 24:00,            !- Field 15
    0.3,                     !- Field 16
    For: Saturday,           !- Field 17
    Until: 1:00,             !- Field 18
    0.2,                     !- Field 19
    Until: 6:00,             !- Field 20
    0.15,                    !- Field 21
    Until: 8:00,             !- Field 22
    0.3,                     !- Field 23
    Until: 10:00,            !- Field 24
    0.6,                     !- Field 25
    Until: 17:00,            !- Field 26
    0.8,                     !- Field 27
    Until: 22:00,            !- Field 28
    0.9,                     !- Field 29
    Until: 23:00,            !- Field 30
    0.5,                     !- Field 31
    Until: 24:00,            !- Field 32
    0.3,                     !- Field 33
    For: SummerDesignDay,    !- Field 34
    Until: 24:00,            !- Field 35
    1,                       !- Field 36
    For: WinterDesignDay,    !- Field 37
    Until: 24:00,            !- Field 38
    0,                       !- Field 39
    For: Sunday Holidays AllOtherDays,  !- Field 40
    Until: 1:00,             !- Field 41
    0.2,                     !- Field 42
    Until: 6:00,             !- Field 43
    0.15,                    !- Field 44
    Until: 8:00,             !- Field 45
    0.3,                     !- Field 46
    Until: 10:00,            !- Field 47
    0.5,                     !- Field 48
    Until: 16:00,            !- Field 49
    0.7,                     !- Field 50
    Until: 22:00,            !- Field 51
    0.6,                     !- Field 52
    Until: 23:00,            !- Field 53
    0.5,                     !- Field 54
    Until: 24:00,            !- Field 55
    0.3;                     !- Field 56

Schedule:Compact,
    BLDG_LIGHT_SCH,          !- Name
    Fraction,                !- Schedule Type Limits Name
    Through: 12/31,          !- Field 1
    For: Weekday,            !- Field 2
    Until: 5:00,             !- Field 3
    0.15,                    !- Field 4
    Until: 6:00,             !- Field 5
    0.2,                     !- Field 6
    Until: 8:00,             !- Field 7
    0.4,                     !- Field 8
    Until: 10:00,            !- Field 9
    0.6,                     !- Field 10
    Until: 22:00,            !- Field 11
    0.9,                     !- Field 12
    Until: 23:00,            !- Field 13
    0.5,                     !- Field 14
    Until: 24:00,            !- Field 15
    0.3,                     !- Field 16
    For: Saturday,           !- Field 17
    Until: 1:00,             !- Field 18
    0.2,                     !- Field 19
    Until: 6:00,             !- Field 20
    0.15,                    !- Field 21
    Until: 8:00,             !- Field 22
    0.3,                     !- Field 23
    Until: 10:00,            !- Field 24
    0.6,                     !- Field 25
    Until: 17:00,            !- Field 26
    0.8,                     !- Field 27
    Until: 22:00,            !- Field 28
    0.9,                     !- Field 29
    Until: 23:00,            !- Field 30
    0.5,                     !- Field 31
    Until: 24:00,            !- Field 32
    0.3,                     !- Field 33
    For: SummerDesignDay,    !- Field 34
    Until: 24:00,            !- Field 35
    1,                       !- Field 36
    For: WinterDesignDay,    !- Field 37
    Until: 24:00,            !- Field 38
    0,                       !- Field 39
    For: Sunday Holidays AllOtherDays,  !- Field 40
    Until: 1:00,             !- Field 41
    0.2,                     !- Field 42
    Until: 6:00,             !- Field 43
    0.15,                    !- Field 44
    Until: 8:00,             !- Field 45
    0.3,                     !- Field 46
    Until: 10:00,            !- Field 47
    0.5,                     !- Field 48
    Until: 16:00,            !- Field 49
    0.7,                     !- Field 50
    Until: 22:00,            !- Field 51
    0.6,                     !- Field 52
    Until: 23:00,            !- Field 53
    0.5,                     !- Field 54
    Until: 24:00,            !- Field 55
    0.3;                     !- Field 56

Schedule:Compact,
    BLDG_EQUIP_SCH,          !- Name
    Fraction,                !- Schedule Type Limits Name
    Through: 12/31,          !- Field 1
    For: Weekdays Saturday,  !- Field 2
    Until: 01:00,            !- Field 3
    0.03,                    !- Field 4
    Until: 02:00,            !- Field 5
    0.02,                    !- Field 6
    Until: 03:00,            !- Field 7
    0.03,                    !- Field 8
    Until: 04:00,            !- Field 9
    0.02,                    !- Field 10
    Until: 05:00,            !- Field 11
    0.05,                    !- Field 12
    Until: 06:00,            !- Field 13
    0.12,                    !- Field 14
    Until: 07:00,            !- Field 15
    0.13,                    !- Field 16
    Until: 08:00,            !- Field 17
    0.15,                    !- Field 18
    Until: 09:00,            !- Field 19
    0.18,                    !- Field 20
    Until: 10:00,            !- Field 21
    0.21,                    !- Field 22
    Until: 11:00,            !- Field 23
    0.26,                    !- Field 24
    Until: 12:00,            !- Field 25
    0.29,                    !- Field 26
    Until: 13:00,            !- Field 27
    0.27,                    !- Field 28
    Until: 14:00,            !- Field 29
    0.25,                    !- Field 30
    Until: 15:00,            !- Field 31
    0.23,                    !- Field 32
    Until: 16:00,            !- Field 33
    0.23,                    !- Field 34
    Until: 17:00,            !- Field 35
    0.26,                    !- Field 36
    Until: 18:00,            !- Field 37
    0.26,                    !- Field 38
    Until: 19:00,            !- Field 39
    0.24,                    !- Field 40
    Until: 20:00,            !- Field 41
    0.22,                    !- Field 42
    Until: 21:00,            !- Field 43
    0.2,                     !- Field 44
    Until: 22:00,            !- Field 45
    0.18,                    !- Field 46
    Until: 23:00,            !- Field 47
    0.09,                    !- Field 48
    Until: 24:00,            !- Field 49
    0.03,                    !- Field 50
    For: SummerDesignDay,    !- Field 51
    Until: 24:00,            !- Field 52
    0.29,                    !- Field 53
    For: WinterDesignDay,    !- Field 54
    Until: 24:00,            !- Field 55
    0.0,                     !- Field 56
    For: Sunday Holidays AllOtherDays,  !- Field 57
    Until: 01:00,            !- Field 58
    0.03,                    !- Field 59
    Until: 02:00,            !- Field 60
    0.02,                    !- Field 61
    Until: 03:00,            !- Field 62
    0.03,                    !- Field 63
    Until: 04:00,            !- Field 64
    0.02,                    !- Field 65
    Until: 05:00,            !- Field 66
    0.05,                    !- Field 67
    Until: 06:00,            !- Field 68
    0.12,                    !- Field 69
    Until: 07:00,            !- Field 70
    0.13,                    !- Field 71
    Until: 08:00,            !- Field 72
    0.15,                    !- Field 73
    Until: 09:00,            !- Field 74
    0.18,                    !- Field 75
    Until: 10:00,            !- Field 76
    0.21,                    !- Field 77
    Until: 11:00,            !- Field 78
    0.26,                    !- Field 79
    Until: 12:00,            !- Field 80
    0.29,                    !- Field 81
    Until: 13:00,            !- Field 82
    0.27,                    !- Field 83
    Until: 14:00,            !- Field 84
    0.25,                    !- Field 85
    Until: 15:00,            !- Field 86
    0.23,                    !- Field 87
    Until: 16:00,            !- Field 88
    0.23,                    !- Field 89
    Until: 17:00,            !- Field 90
    0.26,                    !- Field 91
    Until: 18:00,            !- Field 92
    0.26,                    !- Field 93
    Until: 19:00,            !- Field 94
    0.24,                    !- Field 95
    Until: 20:00,            !- Field 96
    0.22,                    !- Field 97
    Until: 21:00,            !- Field 98
    0.2,                     !- Field 99
    Until: 22:00,            !- Field 100
    0.18,                    !- Field 101
    Until: 23:00,            !- Field 102
    0.09,                    !- Field 103
    Until: 24:00,            !- Field 104
    0.03;                    !- Field 105

Schedule:Compact,
    Rest_GAS_EQUIP_SCH,      !- Name
    Fraction,                !- Schedule Type Limits Name
    Through: 12/31,          !- Field 1
    For: Weekdays Saturday,  !- Field 2
    Until: 01:00,            !- Field 3
    0.03,                    !- Field 4
    Until: 02:00,            !- Field 5
    0.02,                    !- Field 6
    Until: 03:00,            !- Field 7
    0.03,                    !- Field 8
    Until: 04:00,            !- Field 9
    0.02,                    !- Field 10
    Until: 05:00,            !- Field 11
    0.05,                    !- Field 12
    Until: 06:00,            !- Field 13
    0.12,                    !- Field 14
    Until: 07:00,            !- Field 15
    0.13,                    !- Field 16
    Until: 08:00,            !- Field 17
    0.15,                    !- Field 18
    Until: 09:00,            !- Field 19
    0.18,                    !- Field 20
    Until: 10:00,            !- Field 21
    0.21,                    !- Field 22
    Until: 11:00,            !- Field 23
    0.26,                    !- Field 24
    Until: 12:00,            !- Field 25
    0.29,                    !- Field 26
    Until: 13:00,            !- Field 27
    0.27,                    !- Field 28
    Until: 14:00,            !- Field 29
    0.25,                    !- Field 30
    Until: 15:00,            !- Field 31
    0.23,                    !- Field 32
    Until: 16:00,            !- Field 33
    0.23,                    !- Field 34
    Until: 17:00,            !- Field 35
    0.26,                    !- Field 36
    Until: 18:00,            !- Field 37
    0.26,                    !- Field 38
    Until: 19:00,            !- Field 39
    0.24,                    !- Field 40
    Until: 20:00,            !- Field 41
    0.22,                    !- Field 42
    Until: 21:00,            !- Field 43
    0.20,                    !- Field 44
    Until: 22:00,            !- Field 45
    0.18,                    !- Field 46
    Until: 23:00,            !- Field 47
    0.09,                    !- Field 48
    Until: 24:00,            !- Field 49
    0.03,                    !- Field 50
    For: SummerDesignDay,    !- Field 51
    Until: 24:00,            !- Field 52
    0.29,                    !- Field 53
    For: WinterDesignDay,    !- Field 54
    Until: 24:00,            !- Field 55
    0.0,                     !- Field 56
    For: Sunday Holidays AllOtherDays,  !- Field 57
    Until: 01:00,            !- Field 58
    0.03,                    !- Field 59
    Until: 02:00,            !- Field 60
    0.02,                    !- Field 61
    Until: 03:00,            !- Field 62
    0.03,                    !- Field 63
    Until: 04:00,            !- Field 64
    0.02,                    !- Field 65
    Until: 05:00,            !- Field 66
    0.05,                    !- Field 67
    Until: 06:00,            !- Field 68
    0.12,                    !- Field 69
    Until: 07:00,            !- Field 70
    0.13,                    !- Field 71
    Until: 08:00,            !- Field 72
    0.15,                    !- Field 73
    Until: 09:00,            !- Field 74
    0.18,                    !- Field 75
    Until: 10:00,            !- Field 76
    0.21,                    !- Field 77
    Until: 11:00,            !- Field 78
    0.26,                    !- Field 79
    Until: 12:00,            !- Field 80
    0.29,                    !- Field 81
    Until: 13:00,            !- Field 82
    0.27,                    !- Field 83
    Until: 14:00,            !- Field 84
    0.25,                    !- Field 85
    Until: 15:00,            !- Field 86
    0.23,                    !- Field 87
    Until: 16:00,            !- Field 88
    0.23,                    !- Field 89
    Until: 17:00,            !- Field 90
    0.26,                    !- Field 91
    Until: 18:00,            !- Field 92
    0.26,                    !- Field 93
    Until: 19:00,            !- Field 94
    0.24,                    !- Field 95
    Until: 20:00,            !- Field 96
    0.22,                    !- Field 97
    Until: 21:00,            !- Field 98
    0.20,                    !- Field 99
    Until: 22:00,            !- Field 100
    0.18,                    !- Field 101
    Until: 23:00,            !- Field 102
    0.09,                    !- Field 103
    Until: 24:00,            !- Field 104
    0.03;                    !- Field 105

Schedule:Compact,
    BLDG_OCC_SCH,            !- Name
    Fraction,                !- Schedule Type Limits Name
    Through: 12/31,          !- Field 1
    For: Weekdays,           !- Field 2
    Until: 01:00,            !- Field 3
    0.05,                    !- Field 4
    Until: 05:00,            !- Field 5
    0.0,                     !- Field 6
    Until: 06:00,            !- Field 7
    0.05,                    !- Field 8
    Until: 07:00,            !- Field 9
    0.1,                     !- Field 10
    Until: 10:00,            !- Field 11
    0.4,                     !- Field 12
    Until: 11:00,            !- Field 13
    0.2,                     !- Field 14
    Until: 12:00,            !- Field 15
    0.5,                     !- Field 16
    Until: 13:00,            !- Field 17
    0.8,                     !- Field 18
    Until: 14:00,            !- Field 19
    0.7,                     !- Field 20
    Until: 15:00,            !- Field 21
    0.4,                     !- Field 22
    Until: 16:00,            !- Field 23
    0.2,                     !- Field 24
    Until: 17:00,            !- Field 25
    0.25,                    !- Field 26
    Until: 18:00,            !- Field 27
    0.5,                     !- Field 28
    Until: 21:00,            !- Field 29
    0.8,                     !- Field 30
    Until: 22:00,            !- Field 31
    0.5,                     !- Field 32
    Until: 23:00,            !- Field 33
    0.35,                    !- Field 34
    Until: 24:00,            !- Field 35
    0.2,                     !- Field 36
    For: SummerDesignDay,    !- Field 37
    Until: 24:00,            !- Field 38
    1.0,                     !- Field 39
    For: WinterDesignDay,    !- Field 40
    Until: 24:00,            !- Field 41
    0.0,                     !- Field 42
    For: Saturday,           !- Field 43
    Until: 01:00,            !- Field 44
    0.05,                    !- Field 45
    Until: 06:00,            !- Field 46
    0.0,                     !- Field 47
    Until: 07:00,            !- Field 48
    0.05,                    !- Field 49
    Until: 09:00,            !- Field 50
    0.5,                     !- Field 51
    Until: 10:00,            !- Field 52
    0.4,                     !- Field 53
    Until: 11:00,            !- Field 54
    0.2,                     !- Field 55
    Until: 12:00,            !- Field 56
    0.45,                    !- Field 57
    Until: 14:00,            !- Field 58
    0.5,                     !- Field 59
    Until: 15:00,            !- Field 60
    0.35,                    !- Field 61
    Until: 18:00,            !- Field 62
    0.3,                     !- Field 63
    Until: 19:00,            !- Field 64
    0.7,                     !- Field 65
    Until: 20:00,            !- Field 66
    0.9,                     !- Field 67
    Until: 21:00,            !- Field 68
    0.7,                     !- Field 69
    Until: 22:00,            !- Field 70
    0.65,                    !- Field 71
    Until: 23:00,            !- Field 72
    0.55,                    !- Field 73
    Until: 24:00,            !- Field 74
    0.35,                    !- Field 75
    For: Sunday Holidays AllOtherDays,  !- Field 76
    Until: 01:00,            !- Field 77
    0.05,                    !- Field 78
    Until: 06:00,            !- Field 79
    0.0,                     !- Field 80
    Until: 07:00,            !- Field 81
    0.05,                    !- Field 82
    Until: 09:00,            !- Field 83
    0.5,                     !- Field 84
    Until: 11:00,            !- Field 85
    0.2,                     !- Field 86
    Until: 12:00,            !- Field 87
    0.3,                     !- Field 88
    Until: 14:00,            !- Field 89
    0.5,                     !- Field 90
    Until: 15:00,            !- Field 91
    0.3,                     !- Field 92
    Until: 16:00,            !- Field 93
    0.2,                     !- Field 94
    Until: 17:00,            !- Field 95
    0.25,                    !- Field 96
    Until: 18:00,            !- Field 97
    0.35,                    !- Field 98
    Until: 19:00,            !- Field 99
    0.55,                    !- Field 100
    Until: 20:00,            !- Field 101
    0.65,                    !- Field 102
    Until: 21:00,            !- Field 103
    0.7,                     !- Field 104
    Until: 22:00,            !- Field 105
    0.35,                    !- Field 106
    Until: 24:00,            !- Field 107
    0.2;                     !- Field 108

Schedule:Compact,
    INFIL_HALF_ON_SCH,       !- Name
    Fraction,                !- Schedule Type Limits Name
    Through: 12/31,          !- Field 1
    For: Weekdays SummerDesignDay,  !- Field 2
    Until: 05:00,            !- Field 3
    1.0,                     !- Field 4
    Until: 24:00,            !- Field 5
    0.5,                     !- Field 6
    For: Saturday WinterDesignDay,  !- Field 7
    Until: 05:00,            !- Field 8
    1.0,                     !- Field 9
    Until: 24:00,            !- Field 10
    0.5,                     !- Field 11
    For: Sunday Holidays AllOtherDays,  !- Field 12
    Until: 05:00,            !- Field 13
    1.0,                     !- Field 14
    Until: 24:00,            !- Field 15
    0.5;                     !- Field 16

Schedule:Compact,
    INFIL_SCH_PNNL,          !- Name
    Fraction,                !- Schedule Type Limits Name
    Through: 12/31,          !- Field 1
    For: Weekdays SummerDesignDay,  !- Field 2
    Until: 05:00,            !- Field 3
    1.0,                     !- Field 4
    Until: 24:00,            !- Field 5
    0.25,                    !- Field 6
    For: Saturday WinterDesignDay,  !- Field 7
    Until: 05:00,            !- Field 8
    1.0,                     !- Field 9
    Until: 24:00,            !- Field 10
    0.25,                    !- Field 11
    For: Sunday Holidays AllOtherDays,  !- Field 12
    Until: 05:00,            !- Field 13
    1.0,                     !- Field 14
    Until: 24:00,            !- Field 15
    0.25;                    !- Field 16

Schedule:Compact,
    DOOR_INFIL_SCH,          !- Name
    fraction,                !- Schedule Type Limits Name
    Through: 12/31,          !- Field 1
    For: Weekdays,           !- Field 2
    Until: 06:00,            !- Field 3
    0.0,                     !- Field 4
    Until: 07:00,            !- Field 5
    0.144,                   !- Field 6
    Until: 10:00,            !- Field 7
    0.462,                   !- Field 8
    Until: 11:00,            !- Field 9
    0.258,                   !- Field 10
    Until: 12:00,            !- Field 11
    0.558,                   !- Field 12
    Until: 13:00,            !- Field 13
    0.829,                   !- Field 14
    Until: 14:00,            !- Field 15
    0.74,                    !- Field 16
    Until: 15:00,            !- Field 17
    0.462,                   !- Field 18
    Until: 16:00,            !- Field 19
    0.258,                   !- Field 20
    Until: 17:00,            !- Field 21
    0.363,                   !- Field 22
    Until: 18:00,            !- Field 23
    0.558,                   !- Field 24
    Until: 21:00,            !- Field 25
    0.829,                   !- Field 26
    Until: 22:00,            !- Field 27
    0.558,                   !- Field 28
    Until: 23:00,            !- Field 29
    0.363,                   !- Field 30
    Until: 24:00,            !- Field 31
    0.258,                   !- Field 32
    For: SummerDesignDay,    !- Field 33
    Until: 24:00,            !- Field 34
    1.0,                     !- Field 35
    For: WinterDesignDay,    !- Field 36
    Until: 24:00,            !- Field 37
    0.0,                     !- Field 38
    For: Saturday,           !- Field 39
    Until: 06:00,            !- Field 40
    0.0,                     !- Field 41
    Until: 07:00,            !- Field 42
    0.144,                   !- Field 43
    Until: 09:00,            !- Field 44
    0.558,                   !- Field 45
    Until: 10:00,            !- Field 46
    0.462,                   !- Field 47
    Until: 11:00,            !- Field 48
    0.258,                   !- Field 49
    Until: 12:00,            !- Field 50
    0.462,                   !- Field 51
    Until: 14:00,            !- Field 52
    0.558,                   !- Field 53
    Until: 15:00,            !- Field 54
    0.462,                   !- Field 55
    Until: 18:00,            !- Field 56
    0.363,                   !- Field 57
    Until: 19:00,            !- Field 58
    0.74,                    !- Field 59
    Until: 20:00,            !- Field 60
    0.915,                   !- Field 61
    Until: 21:00,            !- Field 62
    0.74,                    !- Field 63
    Until: 22:00,            !- Field 64
    0.65,                    !- Field 65
    Until: 23:00,            !- Field 66
    0.558,                   !- Field 67
    Until: 24:00,            !- Field 68
    0.363,                   !- Field 69
    For: Sunday Holidays AllOtherDays,  !- Field 70
    Until: 06:00,            !- Field 71
    0.0,                     !- Field 72
    Until: 07:00,            !- Field 73
    0.144,                   !- Field 74
    Until: 09:00,            !- Field 75
    0.558,                   !- Field 76
    Until: 11:00,            !- Field 77
    0.258,                   !- Field 78
    Until: 12:00,            !- Field 79
    0.363,                   !- Field 80
    Until: 14:00,            !- Field 81
    0.558,                   !- Field 82
    Until: 15:00,            !- Field 83
    0.363,                   !- Field 84
    Until: 16:00,            !- Field 85
    0.258,                   !- Field 86
    Until: 17:00,            !- Field 87
    0.363,                   !- Field 88
    Until: 18:00,            !- Field 89
    0.462,                   !- Field 90
    Until: 19:00,            !- Field 91
    0.558,                   !- Field 92
    Until: 20:00,            !- Field 93
    0.65,                    !- Field 94
    Until: 21:00,            !- Field 95
    0.74,                    !- Field 96
    Until: 22:00,            !- Field 97
    0.462,                   !- Field 98
    Until: 24:00,            !- Field 99
    0.258;                   !- Field 100

Schedule:Compact,
    VESTIBULE_DOOR_INFIL_SCH,!- Name
    fraction,                !- Schedule Type Limits Name
    Through: 12/31,          !- Field 1
    For: Weekdays,           !- Field 2
    Until: 06:00,            !- Field 3
    0.0,                     !- Field 4
    Until: 07:00,            !- Field 5
    0.131,                   !- Field 6
    Until: 10:00,            !- Field 7
    0.445,                   !- Field 8
    Until: 11:00,            !- Field 9
    0.241,                   !- Field 10
    Until: 12:00,            !- Field 11
    0.542,                   !- Field 12
    Until: 13:00,            !- Field 13
    0.821,                   !- Field 14
    Until: 14:00,            !- Field 15
    0.73,                    !- Field 16
    Until: 15:00,            !- Field 17
    0.445,                   !- Field 18
    Until: 16:00,            !- Field 19
    0.241,                   !- Field 20
    Until: 17:00,            !- Field 21
    0.345,                   !- Field 22
    Until: 18:00,            !- Field 23
    0.542,                   !- Field 24
    Until: 21:00,            !- Field 25
    0.821,                   !- Field 26
    Until: 22:00,            !- Field 27
    0.542,                   !- Field 28
    Until: 23:00,            !- Field 29
    0.345,                   !- Field 30
    Until: 24:00,            !- Field 31
    0.241,                   !- Field 32
    For: SummerDesignDay,    !- Field 33
    Until: 24:00,            !- Field 34
    1.0,                     !- Field 35
    For: WinterDesignDay,    !- Field 36
    Until: 24:00,            !- Field 37
    0.0,                     !- Field 38
    For: Saturday,           !- Field 39
    Until: 06:00,            !- Field 40
    0.0,                     !- Field 41
    Until: 07:00,            !- Field 42
    0.131,                   !- Field 43
    Until: 09:00,            !- Field 44
    0.542,                   !- Field 45
    Until: 10:00,            !- Field 46
    0.445,                   !- Field 47
    Until: 11:00,            !- Field 48
    0.241,                   !- Field 49
    Until: 12:00,            !- Field 50
    0.445,                   !- Field 51
    Until: 14:00,            !- Field 52
    0.542,                   !- Field 53
    Until: 15:00,            !- Field 54
    0.445,                   !- Field 55
    Until: 18:00,            !- Field 56
    0.345,                   !- Field 57
    Until: 19:00,            !- Field 58
    0.73,                    !- Field 59
    Until: 20:00,            !- Field 60
    0.911,                   !- Field 61
    Until: 21:00,            !- Field 62
    0.73,                    !- Field 63
    Until: 22:00,            !- Field 64
    0.637,                   !- Field 65
    Until: 23:00,            !- Field 66
    0.542,                   !- Field 67
    Until: 24:00,            !- Field 68
    0.345,                   !- Field 69
    For: Sunday Holidays AllOtherDays,  !- Field 70
    Until: 06:00,            !- Field 71
    0.0,                     !- Field 72
    Until: 07:00,            !- Field 73
    0.131,                   !- Field 74
    Until: 09:00,            !- Field 75
    0.542,                   !- Field 76
    Until: 11:00,            !- Field 77
    0.241,                   !- Field 78
    Until: 12:00,            !- Field 79
    0.345,                   !- Field 80
    Until: 14:00,            !- Field 81
    0.542,                   !- Field 82
    Until: 15:00,            !- Field 83
    0.345,                   !- Field 84
    Until: 16:00,            !- Field 85
    0.241,                   !- Field 86
    Until: 17:00,            !- Field 87
    0.345,                   !- Field 88
    Until: 18:00,            !- Field 89
    0.445,                   !- Field 90
    Until: 19:00,            !- Field 91
    0.542,                   !- Field 92
    Until: 20:00,            !- Field 93
    0.637,                   !- Field 94
    Until: 21:00,            !- Field 95
    0.73,                    !- Field 96
    Until: 22:00,            !- Field 97
    0.445,                   !- Field 98
    Until: 24:00,            !- Field 99
    0.241;                   !- Field 100

Schedule:Compact,
    Booster Water Inlet Temp Schedule,  !- Name
    Any Number,              !- Schedule Type Limits Name
    THROUGH: 12/31,          !- Field 1
    FOR: AllDays,            !- Field 2
    UNTIL: 24:00,            !- Field 3
    60.00;                   !- Field 4

Schedule:Compact,
    Booster Water Setpoint Temp Schedule,  !- Name
    Any Number,              !- Schedule Type Limits Name
    THROUGH: 12/31,          !- Field 1
    FOR: AllDays,            !- Field 2
    UNTIL: 24:00,            !- Field 3
    82.22;                   !- Field 4

Schedule:Compact,
    BLDG_SWH_SCH,            !- Name
    Fraction,                !- Schedule Type Limits Name
    Through: 12/31,          !- Field 1
    For: Weekdays SummerDesignDay,  !- Field 2
    Until: 01:00,            !- Field 3
    0.2,                     !- Field 4
    Until: 06:00,            !- Field 5
    0.0,                     !- Field 6
    Until: 07:00,            !- Field 7
    0.15,                    !- Field 8
    Until: 08:00,            !- Field 9
    0.6,                     !- Field 10
    Until: 09:00,            !- Field 11
    0.55,                    !- Field 12
    Until: 10:00,            !- Field 13
    0.45,                    !- Field 14
    Until: 11:00,            !- Field 15
    0.4,                     !- Field 16
    Until: 12:00,            !- Field 17
    0.45,                    !- Field 18
    Until: 13:00,            !- Field 19
    0.4,                     !- Field 20
    Until: 14:00,            !- Field 21
    0.35,                    !- Field 22
    Until: 17:00,            !- Field 23
    0.3,                     !- Field 24
    Until: 18:00,            !- Field 25
    0.4,                     !- Field 26
    Until: 19:00,            !- Field 27
    0.55,                    !- Field 28
    Until: 20:00,            !- Field 29
    0.6,                     !- Field 30
    Until: 21:00,            !- Field 31
    0.5,                     !- Field 32
    Until: 22:00,            !- Field 33
    0.55,                    !- Field 34
    Until: 23:00,            !- Field 35
    0.45,                    !- Field 36
    Until: 24:00,            !- Field 37
    0.25,                    !- Field 38
    For: Saturday WinterDesignDay,  !- Field 39
    Until: 01:00,            !- Field 40
    0.2,                     !- Field 41
    Until: 06:00,            !- Field 42
    0.0,                     !- Field 43
    Until: 09:00,            !- Field 44
    0.15,                    !- Field 45
    Until: 10:00,            !- Field 46
    0.5,                     !- Field 47
    Until: 11:00,            !- Field 48
    0.45,                    !- Field 49
    Until: 13:00,            !- Field 50
    0.5,                     !- Field 51
    Until: 14:00,            !- Field 52
    0.45,                    !- Field 53
    Until: 16:00,            !- Field 54
    0.4,                     !- Field 55
    Until: 17:00,            !- Field 56
    0.35,                    !- Field 57
    Until: 18:00,            !- Field 58
    0.4,                     !- Field 59
    Until: 20:00,            !- Field 60
    0.55,                    !- Field 61
    Until: 21:00,            !- Field 62
    0.5,                     !- Field 63
    Until: 22:00,            !- Field 64
    0.55,                    !- Field 65
    Until: 23:00,            !- Field 66
    0.4,                     !- Field 67
    Until: 24:00,            !- Field 68
    0.3,                     !- Field 69
    For: Sunday Holidays AllOtherDays,  !- Field 70
    Until: 01:00,            !- Field 71
    0.25,                    !- Field 72
    Until: 06:00,            !- Field 73
    0.0,                     !- Field 74
    Until: 10:00,            !- Field 75
    0.15,                    !- Field 76
    Until: 12:00,            !- Field 77
    0.5,                     !- Field 78
    Until: 14:00,            !- Field 79
    0.4,                     !- Field 80
    Until: 17:00,            !- Field 81
    0.3,                     !- Field 82
    Until: 18:00,            !- Field 83
    0.4,                     !- Field 84
    Until: 20:00,            !- Field 85
    0.5,                     !- Field 86
    Until: 21:00,            !- Field 87
    0.4,                     !- Field 88
    Until: 22:00,            !- Field 89
    0.5,                     !- Field 90
    Until: 23:00,            !- Field 91
    0.4,                     !- Field 92
    Until: 24:00,            !- Field 93
    0.2;                     !- Field 94

Schedule:Compact,
    Hours_of_operation,      !- Name
    On/Off,                  !- Schedule Type Limits Name
    Through: 12/31,          !- Field 1
    For: Weekday SummerDesignDay,  !- Field 2
    Until: 01:00,            !- Field 3
    1.0,                     !- Field 4
    Until: 05:00,            !- Field 5
    0.0,                     !- Field 6
    Until: 24:00,            !- Field 7
    1.0,                     !- Field 8
    For: Saturday WinterDesignDay,  !- Field 9
    Until: 01:00,            !- Field 10
    1.0,                     !- Field 11
    Until: 05:00,            !- Field 12
    0.0,                     !- Field 13
    Until: 24:00,            !- Field 14
    1.0,                     !- Field 15
    For: Sunday Holidays AllOtherDays,  !- Field 16
    Until: 01:00,            !- Field 17
    1.0,                     !- Field 18
    Until: 05:00,            !- Field 19
    0.0,                     !- Field 20
    Until: 24:00,            !- Field 21
    1.0;                     !- Field 22

Schedule:Compact,
    PlantOnSched,            !- Name
    On/Off,                  !- Schedule Type Limits Name
    Through: 12/31,          !- Field 1
    For: AllDays,            !- Field 2
    Until: 24:00,            !- Field 3
    1.0;                     !- Field 4

Schedule:Compact,
    ALWAYS_ON,               !- Name
    Fraction,                !- Schedule Type Limits Name
    Through: 12/31,          !- Field 1
    For: AllDays,            !- Field 2
    Until: 24:00,            !- Field 3
    1.0;                     !- Field 4

Schedule:Compact,
    Exterior_Lgt_ALWAYS_ON,  !- Name
    Fraction,                !- Schedule Type Limits Name
    Through: 12/31,          !- Field 1
    For: AllDays,            !- Field 2
    Until: 24:00,            !- Field 3
    1;                       !- Field 4

Schedule:Compact,
    Exterior_Lgt_189_1,      !- Name
    fraction,                !- Schedule Type Limits Name
    Through:12/31,           !- Field 1
    For:Weekdays,            !- Field 2
    Until:  1:00,            !- Field 3
    1.0,                     !- Field 4
    Until:  9:00,            !- Field 5
    0.5,                     !- Field 6
    Until: 24:00,            !- Field 7
    1.0,                     !- Field 8
    For:Saturday,            !- Field 9
    Until:  1:00,            !- Field 10
    1.0,                     !- Field 11
    Until:  9:00,            !- Field 12
    0.5,                     !- Field 13
    Until: 24:00,            !- Field 14
    1.0,                     !- Field 15
    FOR:Sunday Holidays AllOtherDays,  !- Field 16
    Until:  1:00,            !- Field 17
    1.0,                     !- Field 18
    Until:  9:00,            !- Field 19
    0.5,                     !- Field 20
    Until: 24:00,            !- Field 21
    1.0;                     !- Field 22

Schedule:Compact,
    ALWAYS_OFF,              !- Name
    Fraction,                !- Schedule Type Limits Name
    Through: 12/31,          !- Field 1
    For: AllDays,            !- Field 2
    Until: 24:00,            !- Field 3
    0.0;                     !- Field 4


Schedule:Compact,
    FAN_SCH,                 !- Name
    Fraction,                !- Schedule Type Limits Name
    Through: 12/31,          !- Field 1
    For: AllDays,            !- Field 2
    Until: 24:00,            !- Field 3
    1.0;                     !- Field 4

Schedule:Compact,
    Kitchen_Exhaust_SCH,     !- Name
    On/Off,                  !- Schedule Type Limits Name
    Through: 12/31,          !- Field 1
    For: Weekday SummerDesignDay,  !- Field 2
    Until: 06:00,            !- Field 3
    0.0,                     !- Field 4
    Until: 24:00,            !- Field 5
    1.0,                     !- Field 6
    For: Saturday WinterDesignDay,  !- Field 7
    Until: 06:00,            !- Field 8
    0.0,                     !- Field 9
    Until: 24:00,            !- Field 10
    1.0,                     !- Field 11
    For: Sunday Holidays AllOtherDays,  !- Field 12
    Until: 06:00,            !- Field 13
    0.0,                     !- Field 14
    Until: 24:00,            !- Field 15
    1.0;                     !- Field 16

Schedule:Compact,
    CoolingCoilAvailSched,   !- Name
    Fraction,                !- Schedule Type Limits Name
    Through: 12/31,          !- Field 1
    For: AllDays,            !- Field 2
    Until: 24:00,            !- Field 3
    1.0;                     !- Field 4

Schedule:Compact,
    HTGSETP_KITCHEN_SCH_YES_OPTIMUM,  !- Name
    Temperature,             !- Schedule Type Limits Name
    Through: 12/31,          !- Field 1
    For: Weekdays,           !- Field 2
    Until: 01:00,            !- Field 3
    19.0,                    !- Field 4
    Until: 04:00,            !- Field 5
    15.6,                    !- Field 6
    Until: 05:00,            !- Field 7
    16.7,                    !- Field 8
    Until: 06:00,            !- Field 9
    17.8,                    !- Field 10
    Until: 24:00,            !- Field 11
    19.0,                    !- Field 12
    For: SummerDesignDay,    !- Field 13
    Until: 24:00,            !- Field 14
    15.6,                    !- Field 15
    For: WinterDesignDay,    !- Field 16
    Until: 24:00,            !- Field 17
    19.0,                    !- Field 18
    For: Saturday,           !- Field 19
    Until: 01:00,            !- Field 20
    19.0,                    !- Field 21
    Until: 04:00,            !- Field 22
    15.6,                    !- Field 23
    Until: 05:00,            !- Field 24
    16.7,                    !- Field 25
    Until: 06:00,            !- Field 26
    17.8,                    !- Field 27
    Until: 24:00,            !- Field 28
    19.0,                    !- Field 29
    For: Sunday Holidays AllOtherDays,  !- Field 30
    Until: 01:00,            !- Field 31
    19.0,                    !- Field 32
    Until: 04:00,            !- Field 33
    15.6,                    !- Field 34
    Until: 05:00,            !- Field 35
    16.7,                    !- Field 36
    Until: 06:00,            !- Field 37
    17.8,                    !- Field 38
    Until: 24:00,            !- Field 39
    19.0;                    !- Field 40

Schedule:Compact,
    HTGSETP_KITCHEN_SCH_NO_OPTIMUM,  !- Name
    Temperature,             !- Schedule Type Limits Name
    Through: 12/31,          !- Field 1
    For: Weekdays,           !- Field 2
    Until: 01:00,            !- Field 3
    19.0,                    !- Field 4
    Until: 04:00,            !- Field 5
    15.6,                    !- Field 6
    Until: 05:00,            !- Field 7
    19.0,                    !- Field 8
    Until: 06:00,            !- Field 9
    19.0,                    !- Field 10
    Until: 24:00,            !- Field 11
    19.0,                    !- Field 12
    For: SummerDesignDay,    !- Field 13
    Until: 24:00,            !- Field 14
    15.6,                    !- Field 15
    For: WinterDesignDay,    !- Field 16
    Until: 24:00,            !- Field 17
    19.0,                    !- Field 18
    For: Saturday,           !- Field 19
    Until: 01:00,            !- Field 20
    19.0,                    !- Field 21
    Until: 04:00,            !- Field 22
    15.6,                    !- Field 23
    Until: 05:00,            !- Field 24
    19.0,                    !- Field 25
    Until: 06:00,            !- Field 26
    19.0,                    !- Field 27
    Until: 24:00,            !- Field 28
    19.0,                    !- Field 29
    For: Sunday Holidays AllOtherDays,  !- Field 30
    Until: 01:00,            !- Field 31
    19.0,                    !- Field 32
    Until: 04:00,            !- Field 33
    15.6,                    !- Field 34
    Until: 05:00,            !- Field 35
    19.0,                    !- Field 36
    Until: 06:00,            !- Field 37
    19.0,                    !- Field 38
    Until: 24:00,            !- Field 39
    19.0;                    !- Field 40

Schedule:Compact,
    CLGSETP_KITCHEN_SCH_YES_OPTIMUM,  !- Name
    Temperature,             !- Schedule Type Limits Name
    Through: 12/31,          !- Field 1
    For: SummerDesignDay,    !- Field 2
    Until: 01:00,            !- Field 3
    26.0,                    !- Field 4
    Until: 05:00,            !- Field 5
    30.0,                    !- Field 6
    Until: 06:00,            !- Field 7
    28.0,                    !- Field 8
    Until: 24:00,            !- Field 9
    26.0,                    !- Field 10
    For: Weekdays,           !- Field 11
    Until: 01:00,            !- Field 12
    26.0,                    !- Field 13
    Until: 04:00,            !- Field 14
    30.0,                    !- Field 15
    Until: 05:00,            !- Field 16
    28.9,                    !- Field 17
    Until: 06:00,            !- Field 18
    27.8,                    !- Field 19
    Until: 24:00,            !- Field 20
    26.0,                    !- Field 21
    For: Saturday,           !- Field 22
    Until: 01:00,            !- Field 23
    26.0,                    !- Field 24
    Until: 04:00,            !- Field 25
    30.0,                    !- Field 26
    Until: 05:00,            !- Field 27
    28.9,                    !- Field 28
    Until: 06:00,            !- Field 29
    27.8,                    !- Field 30
    Until: 24:00,            !- Field 31
    26.0,                    !- Field 32
    For: WinterDesignDay,    !- Field 33
    Until: 24:00,            !- Field 34
    30.00,                   !- Field 35
    For: Sunday Holidays AllOtherDays,  !- Field 36
    Until: 01:00,            !- Field 37
    26.0,                    !- Field 38
    Until: 04:00,            !- Field 39
    30.0,                    !- Field 40
    Until: 05:00,            !- Field 41
    28.9,                    !- Field 42
    Until: 06:00,            !- Field 43
    27.8,                    !- Field 44
    Until: 24:00,            !- Field 45
    26.0;                    !- Field 46

Schedule:Compact,
    CLGSETP_KITCHEN_SCH_NO_OPTIMUM,  !- Name
    Temperature,             !- Schedule Type Limits Name
    Through: 12/31,          !- Field 1
    For: SummerDesignDay,    !- Field 2
    Until: 01:00,            !- Field 3
    26.0,                    !- Field 4
    Until: 05:00,            !- Field 5
    30.0,                    !- Field 6
    Until: 06:00,            !- Field 7
    28.0,                    !- Field 8
    Until: 24:00,            !- Field 9
    26.0,                    !- Field 10
    For: Weekdays,           !- Field 11
    Until: 01:00,            !- Field 12
    26.0,                    !- Field 13
    Until: 04:00,            !- Field 14
    30.0,                    !- Field 15
    Until: 05:00,            !- Field 16
    26.0,                    !- Field 17
    Until: 06:00,            !- Field 18
    26.0,                    !- Field 19
    Until: 24:00,            !- Field 20
    26.0,                    !- Field 21
    For: Saturday,           !- Field 22
    Until: 01:00,            !- Field 23
    26.0,                    !- Field 24
    Until: 04:00,            !- Field 25
    30.0,                    !- Field 26
    Until: 05:00,            !- Field 27
    26.0,                    !- Field 28
    Until: 06:00,            !- Field 29
    26.0,                    !- Field 30
    Until: 24:00,            !- Field 31
    26.0,                    !- Field 32
    For: WinterDesignDay,    !- Field 33
    Until: 24:00,            !- Field 34
    30.00,                   !- Field 35
    For: Sunday Holidays AllOtherDays,  !- Field 36
    Until: 01:00,            !- Field 37
    26.0,                    !- Field 38
    Until: 04:00,            !- Field 39
    30.0,                    !- Field 40
    Until: 05:00,            !- Field 41
    26.0,                    !- Field 42
    Until: 06:00,            !- Field 43
    26.0,                    !- Field 44
    Until: 24:00,            !- Field 45
    26.0;                    !- Field 46

Schedule:Compact,
    CLGSETP_KITCHEN_SCH_NO_SETBACK,  !- Name
    Temperature,             !- Schedule Type Limits Name
    Through: 12/31,          !- Field 1
    For: SummerDesignDay,    !- Field 2
    Until: 01:00,            !- Field 3
    26.0,                    !- Field 4
    Until: 05:00,            !- Field 5
    30.0,                    !- Field 6
    Until: 06:00,            !- Field 7
    28.0,                    !- Field 8
    Until: 24:00,            !- Field 9
    26.0,                    !- Field 10
    For: Weekdays,           !- Field 11
    Until: 01:00,            !- Field 12
    26.0,                    !- Field 13
    Until: 04:00,            !- Field 14
    26.0,                    !- Field 15
    Until: 05:00,            !- Field 16
    26.0,                    !- Field 17
    Until: 06:00,            !- Field 18
    26.0,                    !- Field 19
    Until: 24:00,            !- Field 20
    26.0,                    !- Field 21
    For: Saturday,           !- Field 22
    Until: 01:00,            !- Field 23
    26.0,                    !- Field 24
    Until: 04:00,            !- Field 25
    26.0,                    !- Field 26
    Until: 05:00,            !- Field 27
    26.0,                    !- Field 28
    Until: 06:00,            !- Field 29
    26.0,                    !- Field 30
    Until: 24:00,            !- Field 31
    26.0,                    !- Field 32
    For: WinterDesignDay,    !- Field 33
    Until: 24:00,            !- Field 34
    30.00,                   !- Field 35
    For: Sunday Holidays AllOtherDays,  !- Field 36
    Until: 01:00,            !- Field 37
    26.0,                    !- Field 38
    Until: 04:00,            !- Field 39
    26.0,                    !- Field 40
    Until: 05:00,            !- Field 41
    26.0,                    !- Field 42
    Until: 06:00,            !- Field 43
    26.0,                    !- Field 44
    Until: 24:00,            !- Field 45
    26.0;                    !- Field 46

Schedule:Compact,
    Humidity Setpoint Schedule,  !- Name
    Humidity,                !- Schedule Type Limits Name
    Through: 12/31,          !- Field 1
    For: Weekdays SummerDesignDay,  !- Field 2
    Until: 24:00,            !- Field 3
    50,                      !- Field 4
    For: Saturday WinterDesignDay,  !- Field 5
    Until: 24:00,            !- Field 6
    50,                      !- Field 7
    For: Sunday Holidays AllOtherDays,  !- Field 8
    Until: 24:00,            !- Field 9
    50;                      !- Field 10

Schedule:Compact,
    MinRelHumSetSch,         !- Name
    Humidity,                !- Schedule Type Limits Name
    Through: 12/31,          !- Field 1
    For: AllDays,            !- Field 2
    Until: 24:00,            !- Field 3
    30;                      !- Field 4

Schedule:Compact,
    MaxRelHumSetSch,         !- Name
    Humidity,                !- Schedule Type Limits Name
    Through: 12/31,          !- Field 1
    For: AllDays,            !- Field 2
    Until: 24:00,            !- Field 3
    60;                      !- Field 4
    
    Schedule:Compact,
    Supply-Temp-Schedule,  !- Name
    Temperature,             !- Schedule Type Limits Name
    Through: 12/31,          !- Field 1
    For: AllDays,            !- Field 2
    Until: 24:00,            !- Field 3
    12.8;                      !- Field 4

Schedule:Compact,
    OutdoorAirAvailSched,    !- Name
    Fraction,                !- Schedule Type Limits Name
    Through: 3/31,           !- Field 1
    For: AllDays,            !- Field 2
    Until: 24:00,            !- Field 3
    1.0,                     !- Field 4
    Through: 9/30,           !- Field 5
    For: WeekDays,           !- Field 6
    Until: 7:00,             !- Field 7
    0.0,                     !- Field 8
    Until: 17:00,            !- Field 9
    1.0,                     !- Field 10
    Until: 24:00,            !- Field 11
    0.0,                     !- Field 12
    For: SummerDesignDay WinterDesignDay,  !- Field 13
    Until: 24:00,            !- Field 14
    0.0,                     !- Field 15
    For: AllOtherDays,       !- Field 16
    Until: 24:00,            !- Field 17
    0.0,                     !- Field 18
    Through: 12/31,          !- Field 19
    For: AllDays,            !- Field 20
    Until: 24:00,            !- Field 21
    1.0;                     !- Field 22

Schedule:Compact,
    MinOA_MotorizedDamper_Sched,  !- Name
    Fraction,                !- Schedule Type Limits Name
    Through: 12/31,          !- Field 1
    For: Weekdays SummerDesignDay,  !- Field 2
    Until: 01:00,            !- Field 3
    1.0,                     !- Field 4
    Until: 06:00,            !- Field 5
    0.0,                     !- Field 6
    Until: 24:00,            !- Field 7
    1.0,                     !- Field 8
    For: Saturday,           !- Field 9
    Until: 01:00,            !- Field 10
    1.0,                     !- Field 11
    Until: 06:00,            !- Field 12
    0.0,                     !- Field 13
    Until: 24:00,            !- Field 14
    1.0,                     !- Field 15
    For: WinterDesignDay,    !- Field 16
    Until: 24:00,            !- Field 17
    1.0,                     !- Field 18
    For: Sunday Holidays AllOtherDays,  !- Field 19
    Until: 01:00,            !- Field 20
    1.0,                     !- Field 21
    Until: 06:00,            !- Field 22
    0.0,                     !- Field 23
    Until: 24:00,            !- Field 24
    1.0;                     !- Field 25

Schedule:Compact,
    MinOA_Sched,             !- Name
    Fraction,                !- Schedule Type Limits Name
    Through: 12/31,          !- Field 1
    For: AllDays,            !- Field 2
    Until: 24:00,            !- Field 3
    1.0;                     !- Field 4

Schedule:Compact,
    MinOA_SDKitch_Sched,     !- Name
    On/Off,                  !- Schedule Type Limits Name
    Through: 12/31,          !- Field 1
    For: Weekdays SummerDesignDay,  !- Field 2
    Until: 06:00,            !- Field 3
    0.0,                     !- Field 4
    Until: 24:00,            !- Field 5
    1.0,                     !- Field 6
    For: Saturday,           !- Field 7
    Until: 06:00,            !- Field 8
    0.0,                     !- Field 9
    Until: 24:00,            !- Field 10
    1.0,                     !- Field 11
    For: WinterDesignDay,    !- Field 12
    Until: 24:00,            !- Field 13
    1.0,                     !- Field 14
    For: Sunday Holidays AllOtherDays,  !- Field 15
    Until:06:00,             !- Field 16
    0.0,                     !- Field 17
    Until: 24:00,            !- Field 18
    1.0;                     !- Field 19

Schedule:Compact,
    MinOA_FFKitch_Sched,     !- Name
    On/Off,                  !- Schedule Type Limits Name
    Through: 12/31,          !- Field 1
    For: Weekdays SummerDesignDay,  !- Field 2
    Until: 06:00,            !- Field 3
    0.0,                     !- Field 4
    Until: 24:00,            !- Field 5
    0.65,                    !- Field 6
    For: Saturday,           !- Field 7
    Until: 06:00,            !- Field 8
    0.0,                     !- Field 9
    Until: 24:00,            !- Field 10
    0.65,                    !- Field 11
    For: WinterDesignDay,    !- Field 12
    Until: 24:00,            !- Field 13
    0.65,                    !- Field 14
    For: Sunday Holidays AllOtherDays,  !- Field 15
    Until: 06:00,            !- Field 16
    0.0,                     !- Field 17
    Until: 24:00,            !- Field 18
    0.65;                    !- Field 19

Schedule:Compact,
    Dual Zone Control Type Sched,  !- Name
    Control Type,            !- Schedule Type Limits Name
    Through: 12/31,          !- Field 1
    For: AllDays,            !- Field 2
    Until: 24:00,            !- Field 3
    4;                       !- Field 4

Schedule:Compact,
    Seasonal-Reset-Supply-Air-Temp-Sch,  !- Name
    Temperature,             !- Schedule Type Limits Name
    Through: 3/31,           !- Field 1
    For: AllDays,            !- Field 2
    Until: 24:00,            !- Field 3
    13.0,                    !- Field 4
    Through: 9/30,           !- Field 5
    For: AllDays,            !- Field 6
    Until: 24:00,            !- Field 7
    13.0,                    !- Field 8
    Through: 12/31,          !- Field 9
    For: AllDays,            !- Field 10
    Until: 24:00,            !- Field 11
    13.0;                    !- Field 12

Schedule:Compact,
    Heating-Supply-Air-Temp-Sch,  !- Name
    Temperature,             !- Schedule Type Limits Name
    Through: 12/31,          !- Field 1
    For: AllDays,            !- Field 2
    Until: 24:00,            !- Field 3
    16.0;                    !- Field 4

Schedule:Compact,
    ACTIVITY_SCH,            !- Name
    Any Number,              !- Schedule Type Limits Name
    Through: 12/31,          !- Field 1
    For: AllDays,            !- Field 2
    Until: 24:00,            !- Field 3
    120.;                    !- Field 4

Schedule:Compact,
    WORK_EFF_SCH,            !- Name
    Fraction,                !- Schedule Type Limits Name
    Through: 12/31,          !- Field 1
    For: AllDays,            !- Field 2
    Until: 24:00,            !- Field 3
    0.0;                     !- Field 4

Schedule:Compact,
    AIR_VELO_SCH,            !- Name
    Any Number,              !- Schedule Type Limits Name
    Through: 12/31,          !- Field 1
    For: AllDays,            !- Field 2
    Until: 24:00,            !- Field 3
    0.2;                     !- Field 4

Schedule:Compact,
    CLOTHING_SCH,            !- Name
    Any Number,              !- Schedule Type Limits Name
    Through: 04/30,          !- Field 1
    For: AllDays,            !- Field 2
    Until: 24:00,            !- Field 3
    1.0,                     !- Field 4
    Through: 09/30,          !- Field 5
    For: AllDays,            !- Field 6
    Until: 24:00,            !- Field 7
    0.5,                     !- Field 8
    Through: 12/31,          !- Field 9
    For: AllDays,            !- Field 10
    Until: 24:00,            !- Field 11
    1.0;                     !- Field 12

Schedule:Compact,
    SHADING_SCH,             !- Name
    Any Number,              !- Schedule Type Limits Name
    Through: 12/31,          !- Field 1
    For: AllDays,            !- Field 2
    Until: 24:00,            !- Field 3
    0.0;                     !- Field 4

Schedule:Compact,
    Kitchen Water Equipment Latent fract sched,  !- Name
    Fraction,                !- Schedule Type Limits Name
    Through: 12/31,          !- Field 1
    For: AllDays,            !- Field 2
    Until: 24:00,            !- Field 3
    0.05;                    !- Field 4

Schedule:Compact,
    Kitchen Water Equipment Sensible fract sched,  !- Name
    Fraction,                !- Schedule Type Limits Name
    Through: 12/31,          !- Field 1
    For: AllDays,            !- Field 2
    Until: 24:00,            !- Field 3
    0.2;                     !- Field 4

Schedule:Compact,
    Kitchen Water Equipment Temp Sched,  !- Name
    Temperature,             !- Schedule Type Limits Name
    Through: 12/31,          !- Field 1
    For: AllDays,            !- Field 2
    Until: 24:00,            !- Field 3
    60.0;                    !- Field 4

Schedule:Compact,
    Kitchen Water Equipment Hot Supply Temp Sched,  !- Name
    Temperature,             !- Schedule Type Limits Name
    Through: 12/31,          !- Field 1
    For: AllDays,            !- Field 2
    Until: 24:00,            !- Field 3
    55;                      !- Field 4

Schedule:Compact,
    Kitchen_Case:1_WALKINFREEZER_CaseDefrost2aDaySched,  !- Name
    On/Off,                  !- Schedule Type Limits Name
    Through: 12/31,          !- Field 1
    For:AllDays,             !- Field 2
    Interpolate:Average,     !- Field 3
    Until: 11:00,            !- Field 4
    0,                       !- Field 5
    Until: 11:20,            !- Field 6
    1,                       !- Field 7
    Until: 23:00,            !- Field 8
    0,                       !- Field 9
    Until: 23:20,            !- Field 10
    1,                       !- Field 11
    Until: 24:00,            !- Field 12
    0;                       !- Field 13

Schedule:Compact,
    Kitchen_Case:1_WALKINFREEZER_CaseDripDown2aDaySched,  !- Name
    On/Off,                  !- Schedule Type Limits Name
    Through: 12/31,          !- Field 1
    For:AllDays,             !- Field 2
    Interpolate:Average,     !- Field 3
    Until: 11:00,            !- Field 4
    0,                       !- Field 5
    Until: 11:30,            !- Field 6
    1,                       !- Field 7
    Until: 23:00,            !- Field 8
    0,                       !- Field 9
    Until: 23:30,            !- Field 10
    1,                       !- Field 11
    Until: 24:00,            !- Field 12
    0;                       !- Field 13

Schedule:Compact,
    Kitchen_Case:1_WALKINFREEZER_WalkInStockingSched,  !- Name
    Any Number,              !- Schedule Type Limits Name
    Through: 12/31,          !- Field 1
    For: Tuesday Friday,     !- Field 2
    Until: 4:00,             !- Field 3
    0.0,                     !- Field 4
    Until: 5:00,             !- Field 5
    725.0,                   !- Field 6
    Until: 6:00,             !- Field 7
    417.0,                   !- Field 8
    Until: 7:00,             !- Field 9
    290.0,                   !- Field 10
    Until: 24:00,            !- Field 11
    0.0,                     !- Field 12
    For: AllOtherDays,       !- Field 13
    Until: 4:00,             !- Field 14
    0.0,                     !- Field 15
    Until: 5:00,             !- Field 16
    125.0,                   !- Field 17
    Until: 6:00,             !- Field 18
    117.0,                   !- Field 19
    Until: 7:00,             !- Field 20
    90.0,                    !- Field 21
    Until: 19:00,            !- Field 22
    0.0,                     !- Field 23
    Until: 20:00,            !- Field 24
    125.0,                   !- Field 25
    Until: 21:00,            !- Field 26
    117.0,                   !- Field 27
    Until: 22:00,            !- Field 28
    90.0,                    !- Field 29
    Until: 24:00,            !- Field 30
    0.0;                     !- Field 31

Schedule:Compact,
    Kitchen_Case:1_WALKINFREEZER_CaseCreditReduxSched,  !- Name
    Fraction,                !- Schedule Type Limits Name
    Through: 12/31,          !- Field 1
    For:AllDays,             !- Field 2
    Interpolate:No,          !- Field 3
    Until: 7:00,             !- Field 4
    0.2,                     !- Field 5
    Until: 21:00,            !- Field 6
    0.4,                     !- Field 7
    Until: 24:00,            !- Field 8
    0.2;                     !- Field 9

Schedule:Compact,
    Kitchen_Case:2_SELFCONTAINEDDISPLAYCASE_CaseStockingSched,  !- Name
    Any Number,              !- Schedule Type Limits Name
    Through: 12/31,          !- Field 1
    For:AllDays,             !- Field 2
    Until: 6:00,             !- Field 3
    0.0,                     !- Field 4
    Until: 7:00,             !- Field 5
    50.0,                    !- Field 6
    Until: 9:00,             !- Field 7
    70.0,                    !- Field 8
    Until: 10:00,            !- Field 9
    80.0,                    !- Field 10
    Until: 11:00,            !- Field 11
    70.0,                    !- Field 12
    Until: 13:00,            !- Field 13
    50.0,                    !- Field 14
    Until: 14:00,            !- Field 15
    80.0,                    !- Field 16
    Until: 15:00,            !- Field 17
    90.0,                    !- Field 18
    Until: 16:00,            !- Field 19
    80.0,                    !- Field 20
    Until: 24:00,            !- Field 21
    0.0;                     !- Field 22

Schedule:Compact,
    SWHSys1-Loop-Temp-Schedule,  !- Name
    Temperature,             !- Schedule Type Limits Name
    Through: 12/31,          !- Field 1
    For: AllDays,            !- Field 2
    Until: 24:00,            !- Field 3
    60;                      !- Field 4

Schedule:Compact,
    SWHSys1 Water Heater Setpoint Temperature Schedule Name,  !- Name
    Temperature,             !- Schedule Type Limits Name
    Through: 12/31,          !- Field 1
    For: AllDays,            !- Field 2
    Until: 24:00,            !- Field 3
    60.0;                    !- Field 4

Schedule:Compact,
    SWHSys1 Water Heater Ambient Temperature Schedule Name,  !- Name
    Temperature,             !- Schedule Type Limits Name
    Through: 12/31,          !- Field 1
    For: AllDays,            !- Field 2
    Until: 24:00,            !- Field 3
    22.0;                    !- Field 4

Schedule:Compact,
    walkin_occ_lght_SCH,     !- Name
    Fraction,                !- Schedule Type Limits Name
    Through: 12/31,          !- Field 1
    For: Weekday,            !- Field 2
    Until: 5:00,             !- Field 3
    0.15,                    !- Field 4
    Until: 6:00,             !- Field 5
    0.104,                   !- Field 6
    Until: 8:00,             !- Field 7
    0.208,                   !- Field 8
    Until: 10:00,            !- Field 9
    0.312,                   !- Field 10
    Until: 22:00,            !- Field 11
    0.468,                   !- Field 12
    Until: 23:00,            !- Field 13
    0.26,                    !- Field 14
    Until: 24:00,            !- Field 15
    0.156,                   !- Field 16
    For: Saturday,           !- Field 17
    Until: 1:00,             !- Field 18
    0.2,                     !- Field 19
    Until: 6:00,             !- Field 20
    0.15,                    !- Field 21
    Until: 8:00,             !- Field 22
    0.156,                   !- Field 23
    Until: 10:00,            !- Field 24
    0.312,                   !- Field 25
    Until: 17:00,            !- Field 26
    0.416,                   !- Field 27
    Until: 22:00,            !- Field 28
    0.468,                   !- Field 29
    Until: 23:00,            !- Field 30
    0.26,                    !- Field 31
    Until: 24:00,            !- Field 32
    0.156,                   !- Field 33
    For: SummerDesignDay,    !- Field 34
    Until: 24:00,            !- Field 35
    1,                       !- Field 36
    For: WinterDesignDay,    !- Field 37
    Until: 24:00,            !- Field 38
    0,                       !- Field 39
    For: Sunday Holidays AllOtherDays,  !- Field 40
    Until: 1:00,             !- Field 41
    0.2,                     !- Field 42
    Until: 6:00,             !- Field 43
    0.15,                    !- Field 44
    Until: 8:00,             !- Field 45
    0.156,                   !- Field 46
    Until: 10:00,            !- Field 47
    0.26,                    !- Field 48
    Until: 16:00,            !- Field 49
    0.364,                   !- Field 50
    Until: 22:00,            !- Field 51
    0.312,                   !- Field 52
    Until: 23:00,            !- Field 53
    0.26,                    !- Field 54
    Until: 24:00,            !- Field 55
    0.156;                   !- Field 56

Schedule:Compact,
    Exterior_lighting_schedule_a,  !- Name
    fraction,                !- Schedule Type Limits Name
    Through:12/31,           !- Field 1
    For:AllDays,             !- Field 2
    Until: 01:00,            !- Field 3
    1,                       !- Field 4
    Until: 06:00,            !- Field 5
    0,                       !- Field 6
    Until: 24:00,            !- Field 7
    1;                       !- Field 8

Schedule:Compact,
    Exterior_lighting_schedule_b,  !- Name
    fraction,                !- Schedule Type Limits Name
    Through:12/31,           !- Field 1
    For:AllDays,             !- Field 2
    Until: 01:00,            !- Field 3
    1,                       !- Field 4
    Until: 06:00,            !- Field 5
    0.7,                     !- Field 6
    Until: 24:00,            !- Field 7
    1;                       !- Field 8

Schedule:Compact,
    Exterior_lighting_schedule_a_IECC2015,  !- Name
    fraction,                !- Schedule Type Limits Name
    Through:12/31,           !- Field 1
    For:Weekdays SummerDesignDay,  !- Field 2
    Until: 01:00,            !- Field 3
    1,                       !- Field 4
    Until: 06:00,            !- Field 5
    0,                       !- Field 6
    Until: 24:00,            !- Field 7
    1,                       !- Field 8
    For:Saturdays,           !- Field 9
    Until: 01:00,            !- Field 10
    1,                       !- Field 11
    Until: 06:00,            !- Field 12
    0,                       !- Field 13
    Until: 24:00,            !- Field 14
    1,                       !- Field 15
    For:AllOtherDays,        !- Field 16
    Until: 01:00,            !- Field 17
    1,                       !- Field 18
    Until: 06:00,            !- Field 19
    0,                       !- Field 20
    Until: 24:00,            !- Field 21
    1;                       !- Field 22

Schedule:Compact,
    Exterior_lighting_schedule_b_2016,  !- Name
    fraction,                !- Schedule Type Limits Name
    Through:12/31,           !- Field 1
    For:AllDays,             !- Field 2
    Until: 06:00,            !- Field 3
    0.5,                     !- Field 4
    Until: 24:00,            !- Field 5
    1;                       !- Field 6

Schedule:Compact,
    Kitchen Exhaust Fan Balanced Exhaust Fraction Schedule,  !- Name
    Fraction,                !- Schedule Type Limits Name
    Through: 12/31,          !- Field 1
    For: Weekday SummerDesignDay,  !- Field 2
    Until: 01:00,            !- Field 3
    0.933712077117508,       !- Field 4
    Until: 05:00,            !- Field 5
    0.0,                     !- Field 6
    Until: 24:00,            !- Field 7
    0.933712077117508,       !- Field 8
    For: Saturday WinterDesignDay,  !- Field 9
    Until: 01:00,            !- Field 10
    0.933712077117508,       !- Field 11
    Until: 05:00,            !- Field 12
    0.0,                     !- Field 13
    Until: 24:00,            !- Field 14
    0.933712077117508,       !- Field 15
    For: Sunday Holidays AllOtherDays,  !- Field 16
    Until: 01:00,            !- Field 17
    0.933712077117508,       !- Field 18
    Until: 05:00,            !- Field 19
    0.0,                     !- Field 20
    Until: 24:00,            !- Field 21
    0.933712077117508;       !- Field 22


!-   ===========  ALL OBJECTS IN CLASS: SCHEDULE:CONSTANT ===========

Schedule:Constant,
    SZ_system_OA_Max_Frac_SCH,  !- Name
    Fraction,                !- Schedule Type Limits Name
    0.7;                     !- Hourly Value


{% include "MinOAFraction" %}

{% include "HVACOperationSchd" %}

{% include "HTGSETP_SCH_NO_OPTIMUM" %}

{% include "CLGSETP_SCH_NO_OPTIMUM" %}
!
!-   ===========  ALL OBJECTS IN CLASS: MATERIAL:REGULAR ===========
 
{% include "wall_roof" %} 
 
  Material,
    Std Wood 6inch,          !- Name
    MediumSmooth,            !- Roughness
    0.15,                    !- Thickness {m}
    0.12,                    !- Conductivity {W/m-K}
    540.0000,                !- Density {kg/m3}
    1210,                    !- Specific Heat {J/kg-K}
    0.9000000,               !- Thermal Absorptance
    0.7000000,               !- Solar Absorptance
    0.7000000;               !- Visible Absorptance
 
  Material,
    AC02 Acoustic Ceiling,   !- Name
    MediumSmooth,            !- Roughness
    1.2700000E-02,           !- Thickness {m}
    5.7000000E-02,           !- Conductivity {W/m-K}
    288.0000,                !- Density {kg/m3}
    1339.000,                !- Specific Heat {J/kg-K}
    0.9000000,               !- Thermal Absorptance
    0.7000000,               !- Solar Absorptance
    0.2000000;               !- Visible Absorptance
 
  Material,
    F07 25mm stucco,         !- Name
    Smooth,                  !- Roughness
    0.0254,                  !- Thickness {m}
    0.72,                    !- Conductivity {W/m-K}
    1856,                    !- Density {kg/m3}
    840,                     !- Specific Heat {J/kg-K}
    0.9,                     !- Thermal Absorptance
    0.7,                     !- Solar Absorptance
    0.7;                     !- Visible Absorptance
 
  Material,
    F08 Metal surface,       !- Name
    Smooth,                  !- Roughness
    0.0008,                  !- Thickness {m}
    45.28,                   !- Conductivity {W/m-K}
    7824,                    !- Density {kg/m3}
    500;                     !- Specific Heat {J/kg-K}

  Material,
    F08 Metal roof surface,       !- Name
    Smooth,                  !- Roughness
    0.0008,                  !- Thickness {m}
    45.28,                   !- Conductivity {W/m-K}
    7824,                    !- Density {kg/m3}
    500,                     !- Specific Heat {J/kg-K}
    0.9,                     !- Absorptance:Thermal
    0.7;                     !- Absorptance:Solar
    
  Material,
    F12 Asphalt shingles,    !- Name
    VeryRough,               !- Roughness
    0.0032,                  !- Thickness {m}
    0.04,                    !- Conductivity {W/m-K}
    1120,                    !- Density {kg/m3}
    1260,                    !- Specific Heat {J/kg-K}
    0.9,                     !- Absorptance:Thermal
    0.7;                     !- Absorptance:Solar
 
  Material,
    F13 Built-up roofing,    !- Name
    Rough,                   !- Roughness
    0.0095,                  !- Thickness {m}
    0.16,                    !- Conductivity {W/m-K}
    1120,                    !- Density {kg/m3}
    1460,                    !- Specific Heat {J/kg-K}
    0.9,                     !- Absorptance:Thermal
    0.7;                     !- Absorptance:Solar

  Material,
    G01 13mm gypsum board,   !- Name
    Smooth,                  !- Roughness
    0.0127,                  !- Thickness {m}
    0.1600,                  !- Conductivity {W/m-K}
    800.0000,                !- Density {kg/m3}
    1090.0000,               !- Specific Heat {J/kg-K}
[...]
Curve:Biquadratic,
    HAPCHeatWHFT Speed 4,    !- Name
    1.0,                     !- Coefficient1 Constant
    0.0,                     !- Coefficient2 x
    0.0,                     !- Coefficient3 x**2
    0.0,                     !- Coefficient4 y
    0.0,                     !- Coefficient5 y**2
    0.0,                     !- Coefficient6 x*y
    0,                       !- Minimum Value of x
    50,                      !- Maximum Value of x
    0,                       !- Minimum Value of y
    50,                      !- Maximum Value of y
    ,                        !- Minimum Curve Output
    ,                        !- Maximum Curve Output
    Temperature,             !- Input Unit Type for X
    Temperature,             !- Input Unit Type for Y
    Dimensionless;           !- Output Unit Type

! same as Doe-2 SDL-C4
Curve:Biquadratic,
    HPACCoolCapFT,   !- Name
    0.476428E+00,            !- Coefficient1 Constant
    0.401147E-01,            !- Coefficient2 x
    0.226411E-03,            !- Coefficient3 x**2
    -0.827136E-03,           !- Coefficient4 y
    -0.732240E-05,           !- Coefficient5 y**2
    -0.446278E-03,           !- Coefficient6 x*y
    12.77778,                !- Minimum Value of x
    23.88889,                !- Maximum Value of x
    23.88889,                !- Minimum Value of y
    46.11111,                !- Maximum Value of y
    ,                        !- Minimum Curve Output
    ,                        !- Maximum Curve Output
    Temperature,             !- Input Unit Type for X
    Temperature,             !- Input Unit Type for Y
    Dimensionless;           !- Output Unit Type

Curve:Biquadratic,
    HPACCoolCapFT Speed 1,   !- Name
    0.476428E+00,            !- Coefficient1 Constant
    0.401147E-01,            !- Coefficient2 x
    0.226411E-03,            !- Coefficient3 x**2
    -0.827136E-03,           !- Coefficient4 y
    -0.732240E-05,           !- Coefficient5 y**2
    -0.446278E-03,           !- Coefficient6 x*y
    12.77778,                !- Minimum Value of x
    23.88889,                !- Maximum Value of x
    23.88889,                !- Minimum Value of y
    46.11111,                !- Maximum Value of y
    ,                        !- Minimum Curve Output
    ,                        !- Maximum Curve Output
    Temperature,             !- Input Unit Type for X
    Temperature,             !- Input Unit Type for Y
    Dimensionless;           !- Output Unit Type

Curve:Biquadratic,
    HPACCoolCapFT Speed 2,   !- Name
    0.476428E+00,            !- Coefficient1 Constant
    0.401147E-01,            !- Coefficient2 x
    0.226411E-03,            !- Coefficient3 x**2
    -0.827136E-03,           !- Coefficient4 y
    -0.732240E-05,           !- Coefficient5 y**2
    -0.446278E-03,           !- Coefficient6 x*y
    12.77778,                !- Minimum Value of x
    23.88889,                !- Maximum Value of x
    23.88889,                !- Minimum Value of y
    46.11111,                !- Maximum Value of y
    ,                        !- Minimum Curve Output
    ,                        !- Maximum Curve Output
    Temperature,             !- Input Unit Type for X
    Temperature,             !- Input Unit Type for Y
    Dimensionless;           !- Output Unit Type

Curve:Biquadratic,
    HPACCoolCapFT Speed 3,   !- Name
    0.476428E+00,            !- Coefficient1 Constant
    0.401147E-01,            !- Coefficient2 x
    0.226411E-03,            !- Coefficient3 x**2
    -0.827136E-03,           !- Coefficient4 y
    -0.732240E-05,           !- Coefficient5 y**2
    -0.446278E-03,           !- Coefficient6 x*y
    12.77778,                !- Minimum Value of x
    23.88889,                !- Maximum Value of x
    23.88889,                !- Minimum Value of y
    46.11111,                !- Maximum Value of y
    ,                        !- Minimum Curve Output
    ,                        !- Maximum Curve Output
    Temperature,             !- Input Unit Type for X
    Temperature,             !- Input Unit Type for Y
    Dimensionless;           !- Output Unit Type

Curve:Biquadratic,
    HPACCoolCapFT Speed 4,   !- Name
    0.476428E+00,            !- Coefficient1 Constant
    0.401147E-01,            !- Coefficient2 x
    0.226411E-03,            !- Coefficient3 x**2
    -0.827136E-03,           !- Coefficient4 y
    -0.732240E-05,           !- Coefficient5 y**2
    -0.446278E-03,           !- Coefficient6 x*y
    12.77778,                !- Minimum Value of x
    23.88889,                !- Maximum Value of x
    23.88889,                !- Minimum Value of y
    46.11111,                !- Maximum Value of y
    ,                        !- Minimum Curve Output
    ,                        !- Maximum Curve Output
    Temperature,             !- Input Unit Type for X
    Temperature,             !- Input Unit Type for Y
    Dimensionless;           !- Output Unit Type




! operation condition varies
Curve:Biquadratic,
    HAPCCoolWHFT Speed 1,    !- Name
    1.0,                     !- Coefficient1 Constant
    0.0,                     !- Coefficient2 x
    0.0,                     !- Coefficient3 x**2
    0.0,                     !- Coefficient4 y
    0.0,                     !- Coefficient5 y**2
    0.0,                     !- Coefficient6 x*y
    0,                       !- Minimum Value of x
    50,                      !- Maximum Value of x
    0,                       !- Minimum Value of y
    50,                      !- Maximum Value of y
    ,                        !- Minimum Curve Output
    ,                        !- Maximum Curve Output
    Temperature,             !- Input Unit Type for X
    Temperature,             !- Input Unit Type for Y
    Dimensionless;           !- Output Unit Type

! operation condition varies
Curve:Biquadratic,
    HAPCCoolWHFT Speed 2,    !- Name
    1.0,                     !- Coefficient1 Constant
    0.0,                     !- Coefficient2 x
    0.0,                     !- Coefficient3 x**2
    0.0,                     !- Coefficient4 y
    0.0,                     !- Coefficient5 y**2
    0.0,                     !- Coefficient6 x*y
    0,                       !- Minimum Value of x
    50,                      !- Maximum Value of x
    0,                       !- Minimum Value of y
    50,                      !- Maximum Value of y
    ,                        !- Minimum Curve Output
    ,                        !- Maximum Curve Output
    Temperature,             !- Input Unit Type for X
    Temperature,             !- Input Unit Type for Y
    Dimensionless;           !- Output Unit Type

! operation condition varies
Curve:Biquadratic,
    HAPCCoolWHFT Speed 3,    !- Name
    1.0,                     !- Coefficient1 Constant
    0.0,                     !- Coefficient2 x
    0.0,                     !- Coefficient3 x**2
    0.0,                     !- Coefficient4 y
    0.0,                     !- Coefficient5 y**2
    0.0,                     !- Coefficient6 x*y
    0,                       !- Minimum Value of x
    50,                      !- Maximum Value of x
    0,                       !- Minimum Value of y
    50,                      !- Maximum Value of y
    ,                        !- Minimum Curve Output
    ,                        !- Maximum Curve Output
    Temperature,             !- Input Unit Type for X
    Temperature,             !- Input Unit Type for Y
    Dimensionless;           !- Output Unit Type

! operation condition varies
Curve:Biquadratic,
    HAPCCoolWHFT Speed 4,    !- Name
    1.0,                     !- Coefficient1 Constant
    0.0,                     !- Coefficient2 x
    0.0,                     !- Coefficient3 x**2
    0.0,                     !- Coefficient4 y
    0.0,                     !- Coefficient5 y**2
    0.0,                     !- Coefficient6 x*y
    0,                       !- Minimum Value of x
    50,                      !- Maximum Value of x
    0,                       !- Minimum Value of y
    50,                      !- Maximum Value of y
    ,                        !- Minimum Curve Output
    ,                        !- Maximum Curve Output
    Temperature,             !- Input Unit Type for X
    Temperature,             !- Input Unit Type for Y
    Dimensionless;           !- Output Unit Type


!-   ===========  ALL OBJECTS IN CLASS: OUTPUT:VARIABLEDICTIONARY ===========

Output:VariableDictionary,
    regular,                 !- Key Field
    Name;                    !- Sort Option


!-   ===========  ALL OBJECTS IN CLASS: OUTPUT:TABLE:SUMMARYREPORTS ===========

!  Output:Variable,*,Site Outdoor Air Drybulb Temperature,Hourly;
!  Output:Variable,*,Site Outdoor Air Wetbulb Temperature,Hourly;
!  Output:Variable,HVACOperationSchd,Schedule Value,Hourly;
!
!  ! Outdoor Air Flow
!
!  Output:Variable,PSZ-AC:1_OAInlet Node,System Node VolFlowRate,Hourly;
!  Output:Variable,PSZ-AC:2_OAInlet Node,System Node VolFlowRate,Hourly;
!  Output:Variable,PSZ-AC:3_OAInlet Node,System Node VolFlowRate,Hourly;
!  Output:Variable,PSZ-AC:4_OAInlet Node,System Node VolFlowRate,Hourly;
!  Output:Variable,PSZ-AC:5_OAInlet Node,System Node VolFlowRate,Hourly;
!
!  ! Return Air Flow
!
!  Output:Variable,PSZ-AC:1 Supply Equipment Inlet Node,System Node VolFlowRate,Hourly;
!  Output:Variable,PSZ-AC:2 Supply Equipment Inlet Node,System Node VolFlowRate,Hourly;
!  Output:Variable,PSZ-AC:3 Supply Equipment Inlet Node,System Node VolFlowRate,Hourly;
!  Output:Variable,PSZ-AC:4 Supply Equipment Inlet Node,System Node VolFlowRate,Hourly;
!  Output:Variable,PSZ-AC:5 Supply Equipment Inlet Node,System Node VolFlowRate,Hourly;
!
!  ! Return Air Tdb
!
!  Output:Variable,PSZ-AC:1 Supply Equipment Inlet Node,System Node Temperature,Hourly;
!  Output:Variable,PSZ-AC:2 Supply Equipment Inlet Node,System Node Temperature,Hourly;
!  Output:Variable,PSZ-AC:3 Supply Equipment Inlet Node,System Node Temperature,Hourly;
!  Output:Variable,PSZ-AC:4 Supply Equipment Inlet Node,System Node Temperature,Hourly;
!  Output:Variable,PSZ-AC:5 Supply Equipment Inlet Node,System Node Temperature,Hourly;
!
!  ! Return Air Twb
!
!  Output:Variable,PSZ-AC:1 Supply Equipment Inlet Node,System Node Wetbulb Temperature,Hourly;
!  Output:Variable,PSZ-AC:2 Supply Equipment Inlet Node,System Node Wetbulb Temperature,Hourly;
!  Output:Variable,PSZ-AC:3 Supply Equipment Inlet Node,System Node Wetbulb Temperature,Hourly;
!  Output:Variable,PSZ-AC:4 Supply Equipment Inlet Node,System Node Wetbulb Temperature,Hourly;
!  Output:Variable,PSZ-AC:5 Supply Equipment Inlet Node,System Node Wetbulb Temperature,Hourly;
!
!  ! supply Air Flow
!
!  Output:Variable,PSZ-AC:1 Supply Equipment Outlet Node,System Node VolFlowRate,Hourly;
!  Output:Variable,PSZ-AC:2 Supply Equipment Outlet Node,System Node VolFlowRate,Hourly;
!  Output:Variable,PSZ-AC:3 Supply Equipment Outlet Node,System Node VolFlowRate,Hourly;
!  Output:Variable,PSZ-AC:4 Supply Equipment Outlet Node,System Node VolFlowRate,Hourly;
!  Output:Variable,PSZ-AC:5 Supply Equipment Outlet Node,System Node VolFlowRate,Hourly;
!
!  ! supply Air Tdb
!
!  Output:Variable,PSZ-AC:1 Supply Equipment Outlet Node,System Node Temperature,Hourly;
!  Output:Variable,PSZ-AC:2 Supply Equipment Outlet Node,System Node Temperature,Hourly;
!  Output:Variable,PSZ-AC:3 Supply Equipment Outlet Node,System Node Temperature,Hourly;
!  Output:Variable,PSZ-AC:4 Supply Equipment Outlet Node,System Node Temperature,Hourly;
!  Output:Variable,PSZ-AC:5 Supply Equipment Outlet Node,System Node Temperature,Hourly;
!
!  ! supply Air Twb
!
!  Output:Variable,PSZ-AC:1 Supply Equipment Outlet Node,System Node Wetbulb Temperature,Hourly;
!  Output:Variable,PSZ-AC:2 Supply Equipment Outlet Node,System Node Wetbulb Temperature,Hourly;
!  Output:Variable,PSZ-AC:3 Supply Equipment Outlet Node,System Node Wetbulb Temperature,Hourly;
!  Output:Variable,PSZ-AC:4 Supply Equipment Outlet Node,System Node Wetbulb Temperature,Hourly;
!  Output:Variable,PSZ-AC:5 Supply Equipment Outlet Node,System Node Wetbulb Temperature,Hourly;
!
!  ! Coil Load
!
!  Output:Variable,*,Air System Cooling Coil Total Cooling Energy,Hourly;
!  Output:Variable,*,Air System Heating Coil Total Heating Energy,Hourly;
!
!  ! SHW
!
!  Output:Variable,*,Water Heater Heating Rate,Hourly;
!
!  ! Fan and Pump
!
!  Output:Variable,*,Fan Electric Power,hourly; !- HVAC Average W
!  Output:Variable,*,Pump Electric Power,hourly; !- HVAC Average W
!  Output:Variable,*,Humidifier Electric Power,hourly; !- HVAC Average W
!
!  ! Utility and Submeter
!
!    Output:Meter,Electricity:Facility,Hourly;
!    Output:Meter,Gas:Facility,Hourly;
!    Output:Meter,InteriorLights:Electricity,Hourly;
!    Output:Meter,ExteriorLights:Electricity,Hourly;
!    Output:Meter,InteriorEquipment:Electricity,Hourly;
!    Output:Meter,ExteriorEquipment:Electricity,Hourly;
!    Output:Meter,Fans:Electricity,Hourly;
!    Output:Meter,Pumps:Electricity,Hourly;
!    Output:Meter,Heating:Electricity,Hourly;
!    Output:Meter,Cooling:Electricity,Hourly;
!    Output:Meter,HeatRejection:Electricity,Hourly;
!    Output:Meter,Humidifier:Electricity,Hourly;
!    Output:Meter,HeatRecovery:Electricity,Hourly;
!    Output:Meter,DHW:Electricity,Hourly;
!    Output:Meter,Cogeneration:Electricity,Hourly;
!    Output:Meter,Refrigeration:Electricity,Hourly;
!    Output:Meter,WaterSystems:Electricity,Hourly;
!
!    Output:Meter,InteriorLights:Gas,Hourly;
!    Output:Meter,ExteriorLights:Gas,Hourly;
!    Output:Meter,InteriorEquipment:Gas,Hourly;
!    Output:Meter,ExteriorEquipment:Gas,Hourly;
!    Output:Meter,Fans:Gas,Hourly;
!    Output:Meter,Pumps:Gas,Hourly;
!    Output:Meter,Heating:Gas,Hourly;
!    Output:Meter,Cooling:Gas,Hourly;
!    Output:Meter,HeatRejection:Gas,Hourly;
!    Output:Meter,Humidifier:Gas,Hourly;
!    Output:Meter,HeatRecovery:Gas,Hourly;
!    Output:Meter,DHW:Gas,Hourly;
!    Output:Meter,Cogeneration:Gas,Hourly;
!    Output:Meter,Refrigeration:Gas,Hourly;
!    Output:Meter,WaterSystems:Gas,Hourly;
Output:Table:SummaryReports,
    EquipmentSummary;        !- Report 3 Name


!-   ===========  ALL OBJECTS IN CLASS: OUTPUT:TABLE:MONTHLY ===========

Output:Table:Monthly,
    NameHolderMonthlySummary TaskPurpose ProgressIndicator,  !- Name
    3,                       !- Digits After Decimal
    Site Outdoor Air Drybulb,!- Variable or Meter 1 Name
    SumOrAverage,            !- Aggregation Type for Variable or Meter 1
    Heating:Gas,             !- Variable or Meter 2 Name
    SumOrAverage;            !- Aggregation Type for Variable or Meter 2

Output:Table:Monthly,
    NameHolderMonthlySummary CodeName ASHRAE901,  !- Name
    3,                       !- Digits After Decimal
    Site Outdoor Air Drybulb,!- Variable or Meter 1 Name
    SumOrAverage,            !- Aggregation Type for Variable or Meter 1
    Heating:Gas,             !- Variable or Meter 2 Name
    SumOrAverage;            !- Aggregation Type for Variable or Meter 2

Output:Table:Monthly,
    NameHolderMonthlySummary CodeYear 2019,  !- Name
    3,                       !- Digits After Decimal
    Site Outdoor Air Drybulb,!- Variable or Meter 1 Name
    SumOrAverage,            !- Aggregation Type for Variable or Meter 1
    Heating:Gas,             !- Variable or Meter 2 Name
    SumOrAverage;            !- Aggregation Type for Variable or Meter 2

Output:Table:Monthly,
    NameHolderMonthlySummary CodeAmendment NoneAmend,  !- Name
    3,                       !- Digits After Decimal
    Site Outdoor Air Drybulb,!- Variable or Meter 1 Name
    SumOrAverage,            !- Aggregation Type for Variable or Meter 1
    Heating:Gas,             !- Variable or Meter 2 Name
    SumOrAverage;            !- Aggregation Type for Variable or Meter 2

Output:Table:Monthly,
    NameHolderMonthlySummary PrototypeName OfficeSmall,  !- Name
    3,                       !- Digits After Decimal
    Site Outdoor Air Drybulb,!- Variable or Meter 1 Name
    SumOrAverage,            !- Aggregation Type for Variable or Meter 1
    Heating:Gas,             !- Variable or Meter 2 Name
    SumOrAverage;            !- Aggregation Type for Variable or Meter 2

Output:Table:Monthly,
    NameHolderMonthlySummary TaskScope National,  !- Name
    3,                       !- Digits After Decimal
    Site Outdoor Air Drybulb,!- Variable or Meter 1 Name
    SumOrAverage,            !- Aggregation Type for Variable or Meter 1
    Heating:Gas,             !- Variable or Meter 2 Name
    SumOrAverage;            !- Aggregation Type for Variable or Meter 2

Output:Table:Monthly,
    NameHolderMonthlySummary State National,  !- Name
    3,                       !- Digits After Decimal
    Site Outdoor Air Drybulb,!- Variable or Meter 1 Name
    SumOrAverage,            !- Aggregation Type for Variable or Meter 1
    Heating:Gas,             !- Variable or Meter 2 Name
    SumOrAverage;            !- Aggregation Type for Variable or Meter 2

Output:Table:Monthly,
    NameHolderMonthlySummary ClimateZone 4A,  !- Name
    3,                       !- Digits After Decimal
    Site Outdoor Air Drybulb,!- Variable or Meter 1 Name
    SumOrAverage,            !- Aggregation Type for Variable or Meter 1
    Heating:Gas,             !- Variable or Meter 2 Name
    SumOrAverage;            !- Aggregation Type for Variable or Meter 2

Output:Table:Monthly,
    NameHolderMonthlySummary RepresentCity USA_NY_NewYork,  !- Name
    3,                       !- Digits After Decimal
    Site Outdoor Air Drybulb,!- Variable or Meter 1 Name
    SumOrAverage,            !- Aggregation Type for Variable or Meter 1
    Heating:Gas,             !- Variable or Meter 2 Name
    SumOrAverage;            !- Aggregation Type for Variable or Meter 2


!-   ===========  ALL OBJECTS IN CLASS: OUTPUTCONTROL:TABLE:STYLE ===========

OutputControl:Table:Style,
    CommaAndHTML;            !- Column Separator


!-   ===========  ALL OBJECTS IN CLASS: OUTPUTCONTROL:REPORTINGTOLERANCES ===========

OutputControl:ReportingTolerances,
    0.556,                   !- Tolerance for Time Heating Setpoint Not Met {deltaC}
    0.556;                   !- Tolerance for Time Cooling Setpoint Not Met {deltaC}


!-   ===========  ALL OBJECTS IN CLASS: OUTPUT:VARIABLE ===========

Output:Variable,
    *,                       !- Key Value
    Air System DX Heating Coil Electric Energy ,  !- Variable Name
    Annual;                  !- Reporting Frequency

Output:Variable,
    *,                       !- Key Value
    Air System DX Cooling Coil Electric Energy ,  !- Variable Name
    Annual;                  !- Reporting Frequency

Output:Variable,
    *,                       !- Key Value
    Air System Fan Electric Energy ,  !- Variable Name
    Annual;                  !- Reporting Frequency

Output:Variable,
    *,                       !- Key Value
    Air System Gas Energy ,  !- Variable Name
    Annual;                  !- Reporting Frequency

Output:Variable,
    *,                       !- Key Value
    Air System Heating Coil Electric Energy ,  !- Variable Name
    Annual;                  !- Reporting Frequency

!-   ===========  ALL OBJECTS IN CLASS: OUTPUT:METER:METERFILEONLY ===========

Output:Meter:MeterFileOnly,
    Electricity:Facility,    !- Key Name
    Hourly;                  !- Reporting Frequency

Output:Meter:MeterFileOnly,
    ElectricityNet:Facility, !- Key Name
    Hourly;                  !- Reporting Frequency

Output:Meter:MeterFileOnly,
    Gas:Facility,            !- Key Name
    Hourly;                  !- Reporting Frequency
    
 EnergyManagementSystem:InternalVariable,
    Fan1_DesignFlow,         !- Name
    Supply Fan 1,            !- Internal Data Index Key Name
    Fan Maximum Mass Flow Rate;  !- Internal Data Type

EnergyManagementSystem:InternalVariable,
    Fan2_DesignFlow,         !- Name
    Supply Fan 2,            !- Internal Data Index Key Name
    Fan Maximum Mass Flow Rate;  !- Internal Data Type
