Version,9.0;
!-   ===========  ALL OBJECTS IN CLASS: SIMULATIONCONTROL ===========

  SimulationControl,
    Yes,                     !- Do Zone Sizing Calculation
    Yes,                     !- Do System Sizing Calculation
    Yes,                     !- Do Plant Sizing Calculation
    No,         !- Run Simulation for Sizing Periods
    YES;                      !- Run Simulation for Weather File Run Periods

!-   ===========  ALL OBJECTS IN CLASS: BUILDING ===========

  Building,
    OfficeSmall,            !- Name
    0.0000,                  !- North Axis {deg}
    City,                    !- Terrain
    0.0400,                  !- Loads Convergence Tolerance Value
    0.2000,                  !- Temperature Convergence Tolerance Value {deltaC}
    FullInteriorAndExterior, !- Solar Distribution
    25,                      !- Maximum Number of Warmup Days
    6;                       !- Minimum Number of Warmup Days

!-   ===========  ALL OBJECTS IN CLASS: SHADOWCALCULATION ===========

  ShadowCalculation,
    AverageOverDaysInFrequency,  !- Calculation Method
    30,                      !- Calculation Frequency
    15000;                   !- Maximum Figures in Shadow Overlap Calculations

!-   ===========  ALL OBJECTS IN CLASS: SURFACECONVECTIONALGORITHM:INSIDE ===========

  SurfaceConvectionAlgorithm:Inside,TARP;

!-   ===========  ALL OBJECTS IN CLASS: SURFACECONVECTIONALGORITHM:OUTSIDE ===========

  SurfaceConvectionAlgorithm:Outside,TARP;

!-   ===========  ALL OBJECTS IN CLASS: HEATBALANCEALGORITHM ===========

  HeatBalanceAlgorithm,ConductionTransferFunction,200.0000;

!-   ===========  ALL OBJECTS IN CLASS: TIMESTEP ===========

  Timestep,6;

!-   ===========  ALL OBJECTS IN CLASS: CONVERGENCELIMITS ===========

  ConvergenceLimits,
    1,                       !- Minimum System Timestep {minutes}
    20;                      !- Maximum HVAC Iterations

!-   ===========  ALL OBJECTS IN CLASS: RUNPERIOD ===========

  RunPeriod,
    ,                        !- Name
    1,                       !- Begin Month
    1,                       !- Begin Day of Month
    ,                        !- Begin Year
    12,                      !- End Month
    31,                      !- End Day of Month
    ,                        !- End Year
    Sunday,                  !- Day of Week for Start Day
    No,                      !- Use Weather File Holidays and Special Days
    No,                      !- Use Weather File Daylight Saving Period
    No,                     !- Apply Weekend Holiday Rule
    Yes,                     !- Use Weather File Rain Indicators
    Yes;                     !- Use Weather File Snow Indicators

!-   ===========  ALL OBJECTS IN CLASS: RUNPERIODCONTROL:SPECIALDAYS ===========

  RunPeriodControl:SpecialDays,
    New Years Day,           !- Name
    January 1,               !- Start Date
    1,                       !- Duration {days}
    Holiday;                 !- Special Day Type

  RunPeriodControl:SpecialDays,
    Veterans Day,            !- Name
    November 11,             !- Start Date
    1,                       !- Duration {days}
    Holiday;                 !- Special Day Type

  RunPeriodControl:SpecialDays,
    Christmas,               !- Name
    December 25,             !- Start Date
    1,                       !- Duration {days}
    Holiday;                 !- Special Day Type

  RunPeriodControl:SpecialDays,
    Independence Day,        !- Name
    July 4,                  !- Start Date
    1,                       !- Duration {days}
    Holiday;                 !- Special Day Type

  RunPeriodControl:SpecialDays,
    MLK Day,                 !- Name
    3rd Monday in January,   !- Start Date
    1,                       !- Duration {days}
    Holiday;                 !- Special Day Type

  RunPeriodControl:SpecialDays,
    Presidents Day,          !- Name
    3rd Monday in February,  !- Start Date
    1,                       !- Duration {days}
    Holiday;                 !- Special Day Type

  RunPeriodControl:SpecialDays,
    Memorial Day,            !- Name
    Last Monday in May,      !- Start Date
    1,                       !- Duration {days}
    Holiday;                 !- Special Day Type

  RunPeriodControl:SpecialDays,
    Labor Day,               !- Name
    1st Monday in September, !- Start Date
    1,                       !- Duration {days}
    Holiday;                 !- Special Day Type

  RunPeriodControl:SpecialDays,
    Columbus Day,            !- Name
    2nd Monday in October,   !- Start Date
    1,                       !- Duration {days}
    Holiday;                 !- Special Day Type

  RunPeriodControl:SpecialDays,
    Thanksgiving,            !- Name
    4th Thursday in November,!- Start Date
    1,                       !- Duration {days}
    Holiday;                 !- Special Day Type

!-   ===========  ALL OBJECTS IN CLASS: RUNPERIODCONTROL:DAYLIGHTSAVINGTIME ===========

  RunPeriodControl:DaylightSavingTime,
    2nd Sunday in March,     !- Start Date
    1st Sunday in November;  !- End Date

!-   ===========  ALL OBJECTS IN CLASS: LOCATION ===========

{% include "climates" %}

!-   ===========  ALL OBJECTS IN CLASS: MATERIAL:REGULAR-R ===========

  Material:NoMass,
    Opaque Door panel_con,   !- Name
    MediumRough,             !- Roughness
    0.251572327,  !- Thermal Resistance {m2-K/W}
    0.9,                     !- Thermal Absorptance
    0.7,                     !- Solar Absorptance
    0.7;                     !- Visible Absorptance


!-   ===========  ALL OBJECTS IN CLASS: CONSTRUCTION ===========

  Construction,
    Swinging Door_con,       !- Name
    Opaque Door panel_con;   !- Outside Layer

!-   ===========  ALL OBJECTS IN CLASS: SCHEDULETYPELIMITS ===========

  ScheduleTypeLimits,
    Any Number;              !- Name

  ScheduleTypeLimits,
    Fraction,                !- Name
    0.0,                     !- Lower Limit Value
    1.0,                     !- Upper Limit Value
    CONTINUOUS;              !- Numeric Type

  ScheduleTypeLimits,
    Temperature,             !- Name
    -60,                     !- Lower Limit Value
    200,                     !- Upper Limit Value
    CONTINUOUS;              !- Numeric Type

  ScheduleTypeLimits,
    On/Off,                  !- Name
    0,                       !- Lower Limit Value
    1,                       !- Upper Limit Value
    DISCRETE;                !- Numeric Type

  ScheduleTypeLimits,
    Control Type,            !- Name
    0,                       !- Lower Limit Value
    4,                       !- Upper Limit Value
    DISCRETE;                !- Numeric Type

  ScheduleTypeLimits,
    Humidity,                !- Name
    10,                      !- Lower Limit Value
    90,                      !- Upper Limit Value
    CONTINUOUS;              !- Numeric Type

  ScheduleTypeLimits,
    Number;                  !- Name

!-   ===========  ALL OBJECTS IN CLASS: SCHEDULE:COMPACT ===========

Schedule:Compact,
    BLDG_LIGHT_SCH,          !- Name
    Fraction,                !- Schedule Type Limits Name
    Through: 12/31,          !- Field 1
    For: Weekdays,           !- Field 2
    Until: 5:00,             !- Field 3
    0.18,                    !- Field 4
    Until: 6:00,             !- Field 5
    0.23,                    !- Field 6
    Until: 7:00,             !- Field 7
    0.178641345,             !- Field 8
    Until: 8:00,             !- Field 9
    0.32621463,              !- Field 10
    Until: 12:00,            !- Field 11
    0.69903135,              !- Field 12
    Until: 13:00,            !- Field 13
    0.6213612,               !- Field 14
    Until: 17:00,            !- Field 15
    0.69903135,              !- Field 16
    Until: 18:00,            !- Field 17
    0.473787915,             !- Field 18
    Until: 20:00,            !- Field 19
    0.32621463,              !- Field 20
    Until: 22:00,            !- Field 21
    0.24854448,              !- Field 22
    Until: 23:00,            !- Field 23
    0.178641345,             !- Field 24
    Until: 24:00,            !- Field 25
    0.18,                    !- Field 26
    For: Weekends,           !- Field 27
    Until: 24:00,            !- Field 28
    0.18,                    !- Field 29
    For: Holiday,            !- Field 30
    Until: 24:00,            !- Field 31
    0.18,                    !- Field 32
    For: WinterDesignDay,    !- Field 33
    Until: 24:00,            !- Field 34
    0,                       !- Field 35
    For: SummerDesignDay,    !- Field 36
    Until: 24:00,            !- Field 37
    1,                       !- Field 38
    For: CustomDay1,         !- Field 39
    Until: 24:00,            !- Field 40
    0,                       !- Field 41
    For: CustomDay2,         !- Field 42
    Until: 24:00,            !- Field 43
    0;                       !- Field 44

Schedule:Compact,
    BLDG_EQUIP_SCH,          !- Name
    Fraction,                !- Schedule Type Limits Name
    Through: 12/31,          !- Field 1
    For: WeekDays,           !- Field 2
    Until: 6:00,             !- Field 3
    0.4094775565,            !- Field 4
    Until: 8:00,             !- Field 5
    0.4797526335,            !- Field 6
    Until: 12:00,            !- Field 7
    0.959505267,             !- Field 8
    Until: 13:00,            !- Field 9
    0.90193495098,           !- Field 10
    Until: 17:00,            !- Field 11
    0.959505267,             !- Field 12
    Until: 18:00,            !- Field 13
    0.4797526335,            !- Field 14
    Until: 23:00,            !- Field 15
    0.1919010534,            !- Field 16
    Until: 24:00,            !- Field 17
    0.1637910226,            !- Field 18
    For: Weekends,           !- Field 19
    Until: 24:00,            !- Field 20
    0.1637910226,            !- Field 21
    For: Holiday,            !- Field 22
    Until: 24:00,            !- Field 23
    0.1637910226,            !- Field 24
    For: WinterDesignDay,    !- Field 25
    Until: 24:00,            !- Field 26
    0.0,                     !- Field 27
    For: SummerDesignDay,    !- Field 28
    Until: 24:00,            !- Field 29
    1.0,                     !- Field 30
    For: CustomDay1,         !- Field 31
    Until: 24:00,            !- Field 32
    0.0,                     !- Field 33
    For: CustomDay2,         !- Field 34
    Until: 24:00,            !- Field 35
    0.0;                     !- Field 36

Schedule:Compact,
    BLDG_OCC_SCH,            !- Name
    Fraction,                !- Schedule Type Limits Name
    Through: 12/31,          !- Field 1
    For: Weekdays,           !- Field 2
    Until: 6:00,             !- Field 3
    0.0,                     !- Field 4
    Until: 7:00,             !- Field 5
    0.11,                    !- Field 6
    Until: 8:00,             !- Field 7
    0.21,                    !- Field 8
    Until: 12:00,            !- Field 9
    1.0,                     !- Field 10
    Until: 13:00,            !- Field 11
    0.53,                    !- Field 12
    Until: 17:00,            !- Field 13
    1.0,                     !- Field 14
    Until: 18:00,            !- Field 15
    0.32,                    !- Field 16
    Until: 22:00,            !- Field 17
    0.11,                    !- Field 18
    Until: 23:00,            !- Field 19
    0.05,                    !- Field 20
    Until: 24:00,            !- Field 21
    0.0,                     !- Field 22
    For: Weekends,           !- Field 23
    Until: 24:00,            !- Field 24
    0.0,                     !- Field 25
    For: Holiday,            !- Field 26
    Until: 24:00,            !- Field 27
    0.0,                     !- Field 28
    For: WinterDesignDay,    !- Field 29
    Until: 24:00,            !- Field 30
    0.0,                     !- Field 31
    For: SummerDesignDay,    !- Field 32
    Until: 24:00,            !- Field 33
    1.0,                     !- Field 34
    For: CustomDay1,         !- Field 35
    Until: 24:00,            !- Field 36
    0.0,                     !- Field 37
    For: CustomDay2,         !- Field 38
    Until: 24:00,            !- Field 39
    0.0;                     !- Field 40

Schedule:Compact,
    BLDG_OCC_SCH_w_SB,       !- Name
    Fraction,                !- Schedule Type Limits Name
    Through: 12/31,          !- Field 1
    For: Weekdays,           !- Field 2
    Until: 01:00,            !- Field 3
    0,                       !- Field 4
    Until: 02:00,            !- Field 5
    0,                       !- Field 6
    Until: 03:00,            !- Field 7
    0,                       !- Field 8
    Until: 04:00,            !- Field 9
    0,                       !- Field 10
    Until: 05:00,            !- Field 11
    0,                       !- Field 12
    Until: 06:00,            !- Field 13
    0,                       !- Field 14
    Until: 07:00,            !- Field 15
    0.11,                    !- Field 16
    Until: 08:00,            !- Field 17
    0.21,                    !- Field 18
    Until: 09:00,            !- Field 19
    1,                       !- Field 20
    Until: 10:00,            !- Field 21
    1,                       !- Field 22
    Until: 11:00,            !- Field 23
    0,                       !- Field 24
    Until: 12:00,            !- Field 25
    1,                       !- Field 26
    Until: 13:00,            !- Field 27
    0,                       !- Field 28
    Until: 14:00,            !- Field 29
    1,                       !- Field 30
    Until: 15:00,            !- Field 31
    0,                       !- Field 32
    Until: 16:00,            !- Field 33
    1,                       !- Field 34
    Until: 17:00,            !- Field 35
    1,                       !- Field 36
    Until: 18:00,            !- Field 37
    0.32,                    !- Field 38
    Until: 19:00,            !- Field 39
    0.11,                    !- Field 40
    Until: 20:00,            !- Field 41
    0.11,                    !- Field 42
    Until: 21:00,            !- Field 43
    0.11,                    !- Field 44
    Until: 22:00,            !- Field 45
    0.11,                    !- Field 46
    Until: 23:00,            !- Field 47
    0.05,                    !- Field 48
    Until: 24:00,            !- Field 49
    0,                       !- Field 50
    For: Weekends,           !- Field 51
    Until: 01:00,            !- Field 52
    0,                       !- Field 53
    Until: 02:00,            !- Field 54
    0,                       !- Field 55
    Until: 03:00,            !- Field 56
    0,                       !- Field 57
    Until: 04:00,            !- Field 58
    0,                       !- Field 59
    Until: 05:00,            !- Field 60
    0,                       !- Field 61
    Until: 06:00,            !- Field 62
    0,                       !- Field 63
    Until: 07:00,            !- Field 64
    0,                       !- Field 65
    Until: 08:00,            !- Field 66
    0,                       !- Field 67
    Until: 09:00,            !- Field 68
    0,                       !- Field 69
    Until: 10:00,            !- Field 70
    0,                       !- Field 71
    Until: 11:00,            !- Field 72
    0,                       !- Field 73
    Until: 12:00,            !- Field 74
    0,                       !- Field 75
    Until: 13:00,            !- Field 76
    0,                       !- Field 77
    Until: 14:00,            !- Field 78
    0,                       !- Field 79
    Until: 15:00,            !- Field 80
    0,                       !- Field 81
    Until: 16:00,            !- Field 82
    0,                       !- Field 83
    Until: 17:00,            !- Field 84
    0,                       !- Field 85
    Until: 18:00,            !- Field 86
    0,                       !- Field 87
    Until: 19:00,            !- Field 88
    0,                       !- Field 89
    Until: 20:00,            !- Field 90
    0,                       !- Field 91
    Until: 21:00,            !- Field 92
    0,                       !- Field 93
    Until: 22:00,            !- Field 94
    0,                       !- Field 95
    Until: 23:00,            !- Field 96
    0,                       !- Field 97
    Until: 24:00,            !- Field 98
    0,                       !- Field 99
    For: Holiday,            !- Field 100
    Until: 24:00,            !- Field 101
    0.0,                     !- Field 102
    For: WinterDesignDay,    !- Field 103
    Until: 24:00,            !- Field 104
    0.0,                     !- Field 105
    For: SummerDesignDay,    !- Field 106
    Until: 24:00,            !- Field 107
    1.0,                     !- Field 108
    For: CustomDay1,         !- Field 109
    Until: 24:00,            !- Field 110
    0.0,                     !- Field 111
    For: CustomDay2,         !- Field 112
    Until: 24:00,            !- Field 113
    0.0;                     !- Field 114

Schedule:Compact,
    BLDG_OCC_SCH_wo_SB,      !- Name
    Fraction,                !- Schedule Type Limits Name
    Through: 12/31,          !- Field 1
    For: Weekdays,           !- Field 2
    Until: 01:00,            !- Field 3
    0,                       !- Field 4
    Until: 02:00,            !- Field 5
    0,                       !- Field 6
    Until: 03:00,            !- Field 7
    0,                       !- Field 8
    Until: 04:00,            !- Field 9
    0,                       !- Field 10
    Until: 05:00,            !- Field 11
    0,                       !- Field 12
    Until: 06:00,            !- Field 13
    0,                       !- Field 14
    Until: 07:00,            !- Field 15
    0.11,                    !- Field 16
    Until: 08:00,            !- Field 17
    0.21,                    !- Field 18
    Until: 09:00,            !- Field 19
    1,                       !- Field 20
    Until: 10:00,            !- Field 21
    1,                       !- Field 22
    Until: 11:00,            !- Field 23
    1,                       !- Field 24
    Until: 12:00,            !- Field 25
    1,                       !- Field 26
    Until: 13:00,            !- Field 27
    0.610394505402463,       !- Field 28
    Until: 14:00,            !- Field 29
    1,                       !- Field 30
    Until: 15:00,            !- Field 31
    1,                       !- Field 32
    Until: 16:00,            !- Field 33
    1,                       !- Field 34
    Until: 17:00,            !- Field 35
    1,                       !- Field 36
    Until: 18:00,            !- Field 37
    0.32,                    !- Field 38
    Until: 19:00,            !- Field 39
    0.11,                    !- Field 40
    Until: 20:00,            !- Field 41
    0.11,                    !- Field 42
    Until: 21:00,            !- Field 43
    0.11,                    !- Field 44
    Until: 22:00,            !- Field 45
    0.11,                    !- Field 46
    Until: 23:00,            !- Field 47
    0.05,                    !- Field 48
    Until: 24:00,            !- Field 49
    0,                       !- Field 50
    For: Weekends,           !- Field 51
    Until: 01:00,            !- Field 52
    0,                       !- Field 53
    Until: 02:00,            !- Field 54
    0,                       !- Field 55
    Until: 03:00,            !- Field 56
    0,                       !- Field 57
    Until: 04:00,            !- Field 58
    0,                       !- Field 59
    Until: 05:00,            !- Field 60
    0,                       !- Field 61
    Until: 06:00,            !- Field 62
    0,                       !- Field 63
    Until: 07:00,            !- Field 64
    0,                       !- Field 65
    Until: 08:00,            !- Field 66
    0,                       !- Field 67
    Until: 09:00,            !- Field 68
    0,                       !- Field 69
    Until: 10:00,            !- Field 70
    0,                       !- Field 71
    Until: 11:00,            !- Field 72
    0,                       !- Field 73
    Until: 12:00,            !- Field 74
    0,                       !- Field 75
    Until: 13:00,            !- Field 76
    0,                       !- Field 77
    Until: 14:00,            !- Field 78
    0,                       !- Field 79
    Until: 15:00,            !- Field 80
    0,                       !- Field 81
    Until: 16:00,            !- Field 82
    0,                       !- Field 83
    Until: 17:00,            !- Field 84
    0,                       !- Field 85
    Until: 18:00,            !- Field 86
    0,                       !- Field 87
    Until: 19:00,            !- Field 88
    0,                       !- Field 89
    Until: 20:00,            !- Field 90
    0,                       !- Field 91
    Until: 21:00,            !- Field 92
    0,                       !- Field 93
    Until: 22:00,            !- Field 94
    0,                       !- Field 95
    Until: 23:00,            !- Field 96
    0,                       !- Field 97
    Until: 24:00,            !- Field 98
    0,                       !- Field 99
    For: Holiday,            !- Field 100
    Until: 24:00,            !- Field 101
    0.0,                     !- Field 102
    For: WinterDesignDay,    !- Field 103
    Until: 24:00,            !- Field 104
    0.0,                     !- Field 105
    For: SummerDesignDay,    !- Field 106
    Until: 24:00,            !- Field 107
    1.0,                     !- Field 108
    For: CustomDay1,         !- Field 109
    Until: 24:00,            !- Field 110
    0.0,                     !- Field 111
    For: CustomDay2,         !- Field 112
    Until: 24:00,            !- Field 113
    0.0;                     !- Field 114

Schedule:Compact,
    Binary Occupancy,        !- Name
    Fraction,                !- Schedule Type Limits Name
    Through: 12/31,          !- Field 1
    For: Weekdays,           !- Field 2
    Until: 01:00,            !- Field 3
    0,                       !- Field 4
    Until: 02:00,            !- Field 5
    0,                       !- Field 6
    Until: 03:00,            !- Field 7
    0,                       !- Field 8
    Until: 04:00,            !- Field 9
    0,                       !- Field 10
    Until: 05:00,            !- Field 11
    0,                       !- Field 12
    Until: 06:00,            !- Field 13
    0,                       !- Field 14
    Until: 07:00,            !- Field 15
    1,                       !- Field 16
    Until: 08:00,            !- Field 17
    1,                       !- Field 18
    Until: 09:00,            !- Field 19
    1,                       !- Field 20
    Until: 10:00,            !- Field 21
    1,                       !- Field 22
    Until: 11:00,            !- Field 23
    1,                       !- Field 24
    Until: 12:00,            !- Field 25
    1,                       !- Field 26
    Until: 13:00,            !- Field 27
    1,                       !- Field 28
    Until: 14:00,            !- Field 29
    1,                       !- Field 30
    Until: 15:00,            !- Field 31
    1,                       !- Field 32
    Until: 16:00,            !- Field 33
    1,                       !- Field 34
    Until: 17:00,            !- Field 35
    1,                       !- Field 36
    Until: 18:00,            !- Field 37
    1,                       !- Field 38
    Until: 19:00,            !- Field 39
    1,                       !- Field 40
    Until: 20:00,            !- Field 41
    1,                       !- Field 42
    Until: 21:00,            !- Field 43
    1,                       !- Field 44
    Until: 22:00,            !- Field 45
    1,                       !- Field 46
    Until: 23:00,            !- Field 47
    1,                       !- Field 48
    Until: 24:00,            !- Field 49
    0,                       !- Field 50
    For: Weekends,           !- Field 51
    Until: 01:00,            !- Field 52
    0,                       !- Field 53
    Until: 02:00,            !- Field 54
    0,                       !- Field 55
    Until: 03:00,            !- Field 56
    0,                       !- Field 57
    Until: 04:00,            !- Field 58
    0,                       !- Field 59
    Until: 05:00,            !- Field 60
    0,                       !- Field 61
    Until: 06:00,            !- Field 62
    0,                       !- Field 63
    Until: 07:00,            !- Field 64
    0,                       !- Field 65
    Until: 08:00,            !- Field 66
    0,                       !- Field 67
    Until: 09:00,            !- Field 68
    0,                       !- Field 69
    Until: 10:00,            !- Field 70
    0,                       !- Field 71
    Until: 11:00,            !- Field 72
    0,                       !- Field 73
    Until: 12:00,            !- Field 74
    0,                       !- Field 75
    Until: 13:00,            !- Field 76
    0,                       !- Field 77
    Until: 14:00,            !- Field 78
    0,                       !- Field 79
    Until: 15:00,            !- Field 80
    0,                       !- Field 81
    Until: 16:00,            !- Field 82
    0,                       !- Field 83
    Until: 17:00,            !- Field 84
    0,                       !- Field 85
    Until: 18:00,            !- Field 86
    0,                       !- Field 87
    Until: 19:00,            !- Field 88
    0,                       !- Field 89
    Until: 20:00,            !- Field 90
    0,                       !- Field 91
    Until: 21:00,            !- Field 92
    0,                       !- Field 93
    Until: 22:00,            !- Field 94
    0,                       !- Field 95
    Until: 23:00,            !- Field 96
    0,                       !- Field 97
    Until: 24:00,            !- Field 98
    0,                       !- Field 99
    For: Holiday,            !- Field 100
    Until: 24:00,            !- Field 101
    0.0,                     !- Field 102
    For: WinterDesignDay,    !- Field 103
    Until: 24:00,            !- Field 104
    0.0,                     !- Field 105
    For: SummerDesignDay,    !- Field 106
    Until: 24:00,            !- Field 107
    1.0,                     !- Field 108
    For: CustomDay1,         !- Field 109
    Until: 24:00,            !- Field 110
    0.0,                     !- Field 111
    For: CustomDay2,         !- Field 112
    Until: 24:00,            !- Field 113
    0.0;                     !- Field 114

Schedule:Compact,
    INFIL_QUARTER_ON_SCH,    !- Name
    fraction,                !- Schedule Type Limits Name
    Through: 12/31,          !- Field 1
    For: Weekdays SummerDesignDay,  !- Field 2
    Until: 07:00,            !- Field 3
    1.0,                     !- Field 4
    Until: 19:00,            !- Field 5
    0.25,                    !- Field 6
    Until: 24:00,            !- Field 7
    1.0,                     !- Field 8
    For: Saturday WinterDesignDay,  !- Field 9
    Until: 07:00,            !- Field 10
    1.0,                     !- Field 11
    Until: 18:00,            !- Field 12
    0.25,                    !- Field 13
    Until: 24:00,            !- Field 14
    1.0,                     !- Field 15
    For: Sunday Holidays AllOtherDays,  !- Field 16
    Until: 24:00,            !- Field 17
    1.0;                     !- Field 18

Schedule:Compact,
    INFIL_Door_Opening_SCH,  !- Name
    fraction,                !- Schedule Type Limits Name
    Through: 12/31,          !- Field 1
    For: Weekdays,           !- Field 2
    Until: 06:00,            !- Field 3
    0.0,                     !- Field 4
    Until: 07:00,            !- Field 5
    0.131,                   !- Field 6
    Until: 08:00,            !- Field 7
    1.0,                     !- Field 8
    Until: 12:00,            !- Field 9
    0.131,                   !- Field 10
    Until: 13:00,            !- Field 11
    1.0,                     !- Field 12
    Until: 17:00,            !- Field 13
    0.131,                   !- Field 14
    Until: 18:00,            !- Field 15
    1.0,                     !- Field 16
    Until: 19:00,            !- Field 17
    0.131,                   !- Field 18
    Until: 24:00,            !- Field 19
    0.0,                     !- Field 20
    For: Saturday Sunday Holidays AllOtherDays,  !- Field 21
    Until: 24:00,            !- Field 22
    0.0;                     !- Field 23

Schedule:Compact,
    BLDG_SWH_SCH,            !- Name
    Fraction,                !- Schedule Type Limits Name
    Through: 12/31,          !- Field 1
    For: WeekDays,           !- Field 2
    Until: 7:00,             !- Field 3
    0.0,                     !- Field 4
    Until: 8:00,             !- Field 5
    0.27,                    !- Field 6
    Until: 9:00,             !- Field 7
    0.55,                    !- Field 8
    Until: 11:00,            !- Field 9
    0.64,                    !- Field 10
    Until: 12:00,            !- Field 11
    0.82,                    !- Field 12
    Until: 13:00,            !- Field 13
    1.0,                     !- Field 14
    Until: 14:00,            !- Field 15
    0.91,                    !- Field 16
    Until: 16:00,            !- Field 17
    0.55,                    !- Field 18
    Until: 17:00,            !- Field 19
    0.73,                    !- Field 20
    Until: 19:00,            !- Field 21
    0.37,                    !- Field 22
    Until: 20:00,            !- Field 23
    0.18,                    !- Field 24
    Until: 21:00,            !- Field 25
    0.27,                    !- Field 26
    Until: 22:00,            !- Field 27
    0.09,                    !- Field 28
    Until: 24:00,            !- Field 29
    0.0,                     !- Field 30
    For: Weekends,           !- Field 31
    Until: 24:00,            !- Field 32
    0.0,                     !- Field 33
    For: Holiday,            !- Field 34
    Until: 24:00,            !- Field 35
    0.0,                     !- Field 36
    For: WinterDesignDay,    !- Field 37
    Until: 7:00,             !- Field 38
    0.0,                     !- Field 39
    Until: 8:00,             !- Field 40
    0.27,                    !- Field 41
    Until: 9:00,             !- Field 42
    0.55,                    !- Field 43
    Until: 11:00,            !- Field 44
    0.64,                    !- Field 45
    Until: 12:00,            !- Field 46
    0.82,                    !- Field 47
    Until: 13:00,            !- Field 48
    1.0,                     !- Field 49
    Until: 14:00,            !- Field 50
    0.91,                    !- Field 51
    Until: 16:00,            !- Field 52
    0.55,                    !- Field 53
    Until: 17:00,            !- Field 54
    0.73,                    !- Field 55
    Until: 19:00,            !- Field 56
    0.37,                    !- Field 57
    Until: 20:00,            !- Field 58
    0.18,                    !- Field 59
    Until: 21:00,            !- Field 60
    0.27,                    !- Field 61
    Until: 22:00,            !- Field 62
    0.09,                    !- Field 63
    Until: 24:00,            !- Field 64
    0.0,                     !- Field 65
    For: SummerDesignDay,    !- Field 66
    Until: 7:00,             !- Field 67
    0.0,                     !- Field 68
    Until: 8:00,             !- Field 69
    0.27,                    !- Field 70
    Until: 9:00,             !- Field 71
    0.55,                    !- Field 72
    Until: 11:00,            !- Field 73
    0.64,                    !- Field 74
    Until: 12:00,            !- Field 75
    0.82,                    !- Field 76
    Until: 13:00,            !- Field 77
    1.0,                     !- Field 78
    Until: 14:00,            !- Field 79
    0.91,                    !- Field 80
    Until: 16:00,            !- Field 81
    0.55,                    !- Field 82
    Until: 17:00,            !- Field 83
    0.73,                    !- Field 84
    Until: 19:00,            !- Field 85
    0.37,                    !- Field 86
    Until: 20:00,            !- Field 87
    0.18,                    !- Field 88
    Until: 21:00,            !- Field 89
    0.27,                    !- Field 90
    Until: 22:00,            !- Field 91
    0.09,                    !- Field 92
    Until: 24:00,            !- Field 93
    0.0,                     !- Field 94
    For: CustomDay1,         !- Field 95
    Until: 24:00,            !- Field 96
    0.0,                     !- Field 97
    For: CustomDay2,         !- Field 98
    Until: 24:00,            !- Field 99
    0.0;                     !- Field 100

Schedule:Compact,
    ALWAYS_ON,               !- Name
    Fraction,                !- Schedule Type Limits Name
    Through: 12/31,          !- Field 1
    For: AllDays,            !- Field 2
    Until: 24:00,            !- Field 3
    1.0;                     !- Field 4

Schedule:Compact,
    Exterior_Lgt_ALWAYS_ON,  !- Name
    Fraction,                !- Schedule Type Limits Name
    Through: 12/31,          !- Field 1
    For: AllDays,            !- Field 2
    Until: 24:00,            !- Field 3
    1;                       !- Field 4

Schedule:Compact,
    Exterior_Lgt_189_1,      !- Name
    Fraction,                !- Schedule Type Limits Name
    Through:12/31,           !- Field 1
    For:Weekdays,            !- Field 2
    Until:  9:00,            !- Field 3
    0.5,                     !- Field 4
    Until: 23:00,            !- Field 5
    1.0,                     !- Field 6
    Until: 24:00,            !- Field 7
    0.5,                     !- Field 8
    For:Saturday,            !- Field 9
    Until: 24:00,            !- Field 10
    0.5,                     !- Field 11
    FOR:Sunday Holidays AllOtherDays,  !- Field 12
    Until: 24:00,            !- Field 13
    0.5;                     !- Field 14

Schedule:Compact,
    ALWAYS_OFF,              !- Name
    Fraction,                !- Schedule Type Limits Name
    Through: 12/31,          !- Field 1
    For: AllDays,            !- Field 2
    Until: 24:00,            !- Field 3
    0.0;                     !- Field 4

{% include "HVACOperationSchd" %}

{% include "HTGSETP_SCH_NO_OPTIMUM" %}

{% include "CLGSETP_SCH_NO_OPTIMUM" %}

Schedule:Compact,
    HVACOperationSchd_w_SB,  !- Name
    Fraction,                !- Schedule Type Limits Name
    Through: 12/31,          !- Field 1
    For: Weekdays,           !- Field 2
    Until: 01:00,            !- Field 3
    0,                       !- Field 4
    Until: 02:00,            !- Field 5
    0,                       !- Field 6
    Until: 03:00,            !- Field 7
    0,                       !- Field 8
    Until: 04:00,            !- Field 9
    0,                       !- Field 10
    Until: 05:00,            !- Field 11
    0,                       !- Field 12
    Until: 06:00,            !- Field 13
    0,                       !- Field 14
    Until: 07:00,            !- Field 15
    1,                       !- Field 16
    Until: 08:00,            !- Field 17
    1,                       !- Field 18
    Until: 09:00,            !- Field 19
    1,                       !- Field 20
    Until: 10:00,            !- Field 21
    1,                       !- Field 22
    Until: 11:00,            !- Field 23
    0,                       !- Field 24
    Until: 12:00,            !- Field 25
    1,                       !- Field 26
    Until: 13:00,            !- Field 27
    0,                       !- Field 28
    Until: 14:00,            !- Field 29
    1,                       !- Field 30
    Until: 15:00,            !- Field 31
    0,                       !- Field 32
    Until: 16:00,            !- Field 33
    1,                       !- Field 34
    Until: 17:00,            !- Field 35
    1,                       !- Field 36
    Until: 18:00,            !- Field 37
    1,                       !- Field 38
    Until: 19:00,            !- Field 39
    1,                       !- Field 40
    Until: 20:00,            !- Field 41
    0,                       !- Field 42
    Until: 21:00,            !- Field 43
    0,                       !- Field 44
    Until: 22:00,            !- Field 45
    0,                       !- Field 46
    Until: 23:00,            !- Field 47
    0,                       !- Field 48
    Until: 24:00,            !- Field 49
    0,                       !- Field 50
    For: Weekends,           !- Field 51
    Until: 01:00,            !- Field 52
    0,                       !- Field 53
    Until: 02:00,            !- Field 54
    0,                       !- Field 55
    Until: 03:00,            !- Field 56
    0,                       !- Field 57
    Until: 04:00,            !- Field 58
    0,                       !- Field 59
    Until: 05:00,            !- Field 60
    0,                       !- Field 61
    Until: 06:00,            !- Field 62
    0,                       !- Field 63
    Until: 07:00,            !- Field 64
    0,                       !- Field 65
    Until: 08:00,            !- Field 66
    0,                       !- Field 67
    Until: 09:00,            !- Field 68
    0,                       !- Field 69
    Until: 10:00,            !- Field 70
    0,                       !- Field 71
    Until: 11:00,            !- Field 72
    0,                       !- Field 73
    Until: 12:00,            !- Field 74
    0,                       !- Field 75
    Until: 13:00,            !- Field 76
    0,                       !- Field 77
    Until: 14:00,            !- Field 78
    0,                       !- Field 79
    Until: 15:00,            !- Field 80
    0,                       !- Field 81
    Until: 16:00,            !- Field 82
    0,                       !- Field 83
    Until: 17:00,            !- Field 84
    0,                       !- Field 85
    Until: 18:00,            !- Field 86
    0,                       !- Field 87
    Until: 19:00,            !- Field 88
    0,                       !- Field 89
    Until: 20:00,            !- Field 90
    0,                       !- Field 91
    Until: 21:00,            !- Field 92
    0,                       !- Field 93
    Until: 22:00,            !- Field 94
    0,                       !- Field 95
    Until: 23:00,            !- Field 96
    0,                       !- Field 97
    Until: 24:00,            !- Field 98
    0,                       !- Field 99
    For: SummerDesignDay,    !- Field 100
    Until: 06:00,            !- Field 101
    0.0,                     !- Field 102
    Until: 19:00,            !- Field 103
    1.0,                     !- Field 104
    Until: 24:00,            !- Field 105
    0.0,                     !- Field 106
    For: WinterDesignDay,    !- Field 107
    Until: 24:00,            !- Field 108
    0.0,                     !- Field 109
    For: Holidays AllOtherDays,  !- Field 110
    Until: 24:00,            !- Field 111
    0.0;                     !- Field 112

Schedule:Compact,
    PlantOnSched,            !- Name
    On/Off,                  !- Schedule Type Limits Name
    Through: 12/31,          !- Field 1
    For: AllDays,            !- Field 2
    Until: 24:00,            !- Field 3
    1.0;                     !- Field 4

Schedule:Compact,
    ReheatCoilAvailSched,    !- Name
    Fraction,                !- Schedule Type Limits Name
    Through: 12/31,          !- Field 1
    For: AllDays,            !- Field 2
    Until: 24:00,            !- Field 3
    1.0;                     !- Field 4

Schedule:Compact,
    CoolingCoilAvailSched,   !- Name
    Fraction,                !- Schedule Type Limits Name
    Through: 12/31,          !- Field 1
    For: AllDays,            !- Field 2
    Until: 24:00,            !- Field 3
    1.0;                     !- Field 4


Schedule:Compact,
    HTGSETP_SCH_NO_OPTIMUM_W_sb,  !- Name
    Temperature,             !- Schedule Type Limits Name
    Through: 12/31,          !- Field 1
    For: Weekdays,           !- Field 2
    Until: 06:00,            !- Field 3
    15.56,                   !- Field 4
    Until: 19:00,            !- Field 5
    21.11,                   !- Field 6
    Until: 20:00,            !- Field 7
    15.56,                   !- Field 8
    Until: 21:00,            !- Field 9
    15.56,                   !- Field 10
    Until: 22:00,            !- Field 11
    15.56,                   !- Field 12
    Until: 23:00,            !- Field 13
    15.56,                   !- Field 14
    Until: 24:00,            !- Field 15
    15.56,                   !- Field 16
    For: Weekends,           !- Field 17
    Until: 01:00,            !- Field 18
    15.56,                   !- Field 19
    Until: 02:00,            !- Field 20
    15.56,                   !- Field 21
    Until: 03:00,            !- Field 22
    15.56,                   !- Field 23
    Until: 04:00,            !- Field 24
    15.56,                   !- Field 25
    Until: 05:00,            !- Field 26
    15.56,                   !- Field 27
    Until: 06:00,            !- Field 28
    15.56,                   !- Field 29
    Until: 07:00,            !- Field 30
    15.56,                   !- Field 31
    Until: 08:00,            !- Field 32
    15.56,                   !- Field 33
    Until: 09:00,            !- Field 34
    15.56,                   !- Field 35
    Until: 10:00,            !- Field 36
    15.56,                   !- Field 37
    Until: 11:00,            !- Field 38
    15.56,                   !- Field 39
    Until: 12:00,            !- Field 40
    15.56,                   !- Field 41
    Until: 13:00,            !- Field 42
    15.56,                   !- Field 43
    Until: 14:00,            !- Field 44
    15.56,                   !- Field 45
    Until: 15:00,            !- Field 46
    15.56,                   !- Field 47
    Until: 16:00,            !- Field 48
    15.56,                   !- Field 49
    Until: 17:00,            !- Field 50
    15.56,                   !- Field 51
    Until: 18:00,            !- Field 52
    15.56,                   !- Field 53
    Until: 19:00,            !- Field 54
    15.56,                   !- Field 55
    Until: 20:00,            !- Field 56
    15.56,                   !- Field 57
    Until: 21:00,            !- Field 58
    15.56,                   !- Field 59
    Until: 22:00,            !- Field 60
    15.56,                   !- Field 61
    Until: 23:00,            !- Field 62
    15.56,                   !- Field 63
    Until: 24:00,            !- Field 64
    15.56,                   !- Field 65
    For: Holiday,            !- Field 66
    Until: 24:00,            !- Field 67
    15.56,                   !- Field 68
    For: WinterDesignDay,    !- Field 69
    Until: 24:00,            !- Field 70
    21.11,                   !- Field 71
    For: SummerDesignDay,    !- Field 72
    Until: 24:00,            !- Field 73
    15.56,                   !- Field 74
    For: CustomDay1,         !- Field 75
    Until: 24:00,            !- Field 76
    15.56,                   !- Field 77
    For: CustomDay2,         !- Field 78
    Until: 24:00,            !- Field 79
    15.56;                   !- Field 80

Schedule:Compact,
    HTGSETP_SCH_YES_OPTIMUM, !- Name
    Temperature,             !- Schedule Type Limits Name
    Through: 12/31,          !- Field 1
    For: WeekDays,           !- Field 2
    Until: 6:00,             !- Field 3
    15.56,                   !- Field 4
    Until: 7:00,             !- Field 5
    17.8,                    !- Field 6
    Until: 8:00,             !- Field 7
    20.0,                    !- Field 8
    Until: 19:00,            !- Field 9
    21.11,                   !- Field 10
    Until: 24:00,            !- Field 11
    15.56,                   !- Field 12
    For: Weekends,           !- Field 13
    Until: 24:00,            !- Field 14
    15.56,                   !- Field 15
    For: Holiday,            !- Field 16
    Until: 24:00,            !- Field 17
    15.56,                   !- Field 18
    For: WinterDesignDay,    !- Field 19
    Until: 24:00,            !- Field 20
    21.11,                   !- Field 21
    For: SummerDesignDay,    !- Field 22
    Until: 24:00,            !- Field 23
    15.56,                   !- Field 24
    For: CustomDay1,         !- Field 25
    Until: 24:00,            !- Field 26
    15.56,                   !- Field 27
    For: CustomDay2,         !- Field 28
    Until: 24:00,            !- Field 29
    15.56;                   !- Field 30

Schedule:Compact,
    CLGSETP_SCH_NO_OPTIMUM_w_SB,  !- Name
    Temperature,             !- Schedule Type Limits Name
    Through: 12/31,          !- Field 1
    For: Weekdays,           !- Field 2
    Until: 01:00,            !- Field 3
    29.44,                   !- Field 4
    Until: 02:00,            !- Field 5
    29.44,                   !- Field 6
    Until: 03:00,            !- Field 7
    29.44,                   !- Field 8
    Until: 04:00,            !- Field 9
    29.44,                   !- Field 10
    Until: 05:00,            !- Field 11
    29.44,                   !- Field 12
    Until: 06:00,            !- Field 13
    29.44,                   !- Field 14
    Until: 07:00,            !- Field 15
    23.89,                   !- Field 16
    Until: 08:00,            !- Field 17
    23.89,                   !- Field 18
    Until: 09:00,            !- Field 19
    23.89,                   !- Field 20
    Until: 10:00,            !- Field 21
    23.89,                   !- Field 22
    Until: 11:00,            !- Field 23
    24.4455555555556,        !- Field 24
    Until: 12:00,            !- Field 25
    23.89,                   !- Field 26
    Until: 13:00,            !- Field 27
    24.4455555555556,        !- Field 28
    Until: 14:00,            !- Field 29
    23.89,                   !- Field 30
    Until: 15:00,            !- Field 31
    24.4455555555556,        !- Field 32
    Until: 16:00,            !- Field 33
    23.89,                   !- Field 34
    Until: 17:00,            !- Field 35
    23.89,                   !- Field 36
    Until: 18:00,            !- Field 37
    23.89,                   !- Field 38
    Until: 19:00,            !- Field 39
    29.44,                   !- Field 40
    Until: 20:00,            !- Field 41
    29.44,                   !- Field 42
    Until: 21:00,            !- Field 43
    29.44,                   !- Field 44
    Until: 22:00,            !- Field 45
    29.44,                   !- Field 46
    Until: 23:00,            !- Field 47
    29.44,                   !- Field 48
    Until: 24:00,            !- Field 49
    29.44,                   !- Field 50
    For: Weekends,           !- Field 51
    Until: 01:00,            !- Field 52
    29.44,                   !- Field 53
    Until: 02:00,            !- Field 54
    29.44,                   !- Field 55
    Until: 03:00,            !- Field 56
    29.44,                   !- Field 57
    Until: 04:00,            !- Field 58
    29.44,                   !- Field 59
    Until: 05:00,            !- Field 60
    29.44,                   !- Field 61
    Until: 06:00,            !- Field 62
    29.44,                   !- Field 63
    Until: 07:00,            !- Field 64
    29.44,                   !- Field 65
    Until: 08:00,            !- Field 66
    29.44,                   !- Field 67
    Until: 09:00,            !- Field 68
    29.44,                   !- Field 69
    Until: 10:00,            !- Field 70
    29.44,                   !- Field 71
    Until: 11:00,            !- Field 72
    29.44,                   !- Field 73
    Until: 12:00,            !- Field 74
    29.44,                   !- Field 75
    Until: 13:00,            !- Field 76
    29.44,                   !- Field 77
    Until: 14:00,            !- Field 78
    29.44,                   !- Field 79
    Until: 15:00,            !- Field 80
    29.44,                   !- Field 81
    Until: 16:00,            !- Field 82
    29.44,                   !- Field 83
    Until: 17:00,            !- Field 84
    29.44,                   !- Field 85
    Until: 18:00,            !- Field 86
    29.44,                   !- Field 87
    Until: 19:00,            !- Field 88
    29.44,                   !- Field 89
    Until: 20:00,            !- Field 90
    29.44,                   !- Field 91
    Until: 21:00,            !- Field 92
    29.44,                   !- Field 93
    Until: 22:00,            !- Field 94
    29.44,                   !- Field 95
    Until: 23:00,            !- Field 96
    29.44,                   !- Field 97
    Until: 24:00,            !- Field 98
    29.44,                   !- Field 99
    For: Holiday,            !- Field 100
    Until: 24:00,            !- Field 101
    29.44,                   !- Field 102
    For: WinterDesignDay,    !- Field 103
    Until: 24:00,            !- Field 104
    29.44,                   !- Field 105
    For: SummerDesignDay,    !- Field 106
    Until: 24:00,            !- Field 107
    23.89,                   !- Field 108
    For: CustomDay1,         !- Field 109
    Until: 24:00,            !- Field 110
    29.44,                   !- Field 111
    For: CustomDay2,         !- Field 112
    Until: 24:00,            !- Field 113
    29.44;                   !- Field 114

Schedule:Compact,
    CLGSETP_SCH_YES_OPTIMUM, !- Name
    Temperature,             !- Schedule Type Limits Name
    Through: 12/31,          !- Field 1
    For: WeekDays,           !- Field 2
    Until: 6:00,             !- Field 3
    29.44,                   !- Field 4
    Until: 7:00,             !- Field 5
    27.8,                    !- Field 6
    Until: 8:00,             !- Field 7
    25.6,                    !- Field 8
    Until: 18:00,            !- Field 9
    23.89,                   !- Field 10
    Until: 24:00,            !- Field 11
    29.44,                   !- Field 12
    For: Weekends,           !- Field 13
    Until: 24:00,            !- Field 14
    29.44,                   !- Field 15
    For: Holiday,            !- Field 16
    Until: 24:00,            !- Field 17
    29.44,                   !- Field 18
    For: WinterDesignDay,    !- Field 19
    Until: 24:00,            !- Field 20
    29.44,                   !- Field 21
    For: SummerDesignDay,    !- Field 22
    Until: 24:00,            !- Field 23
    23.89,                   !- Field 24
    For: CustomDay1,         !- Field 25
    Until: 24:00,            !- Field 26
    29.44,                   !- Field 27
    For: CustomDay2,         !- Field 28
    Until: 24:00,            !- Field 29
    29.44;                   !- Field 30

Schedule:Compact,
    CLGSETP_SCH_NO_SETBACK,  !- Name
    Temperature,             !- Schedule Type Limits Name
    Through: 12/31,          !- Field 1
    For: WeekDays,           !- Field 2
    Until: 6:00,             !- Field 3
    23.89,                   !- Field 4
    Until: 7:00,             !- Field 5
    23.89,                   !- Field 6
    Until: 18:00,            !- Field 7
    23.89,                   !- Field 8
    Until: 24:00,            !- Field 9
    23.89,                   !- Field 10
    For: Weekends,           !- Field 11
    Until: 24:00,            !- Field 12
    23.89,                   !- Field 13
    For: Holiday,            !- Field 14
    Until: 24:00,            !- Field 15
    23.89,                   !- Field 16
    For: WinterDesignDay,    !- Field 17
    Until: 24:00,            !- Field 18
    29.44,                   !- Field 19
    For: SummerDesignDay,    !- Field 20
    Until: 24:00,            !- Field 21
    23.89,                   !- Field 22
    For: CustomDay1,         !- Field 23
    Until: 24:00,            !- Field 24
    23.89,                   !- Field 25
    For: CustomDay2,         !- Field 26
    Until: 24:00,            !- Field 27
    23.89;                   !- Field 28

Schedule:Compact,
    Humidity Setpoint Schedule,  !- Name
    Humidity,                !- Schedule Type Limits Name
    Through: 12/31,          !- Field 1
    For: Weekdays SummerDesignDay,  !- Field 2
    Until: 24:00,            !- Field 3
    50,                      !- Field 4
    For: Saturday WinterDesignDay,  !- Field 5
    Until: 24:00,            !- Field 6
    50,                      !- Field 7
    For: Sunday Holidays AllOtherDays,  !- Field 8
    Until: 24:00,            !- Field 9
    50;                      !- Field 10

Schedule:Compact,
    MinOA_MotorizedDamper_Sched,  !- Name
    fraction,                !- Schedule Type Limits Name
    Through: 12/31,          !- Field 1
    For: Weekdays SummerDesignDay,  !- Field 2
    Until: 07:00,            !- Field 3
    0.0,                     !- Field 4
    Until: 19:00,            !- Field 5
    1.0,                     !- Field 6
    Until: 24:00,            !- Field 7
    0.0,                     !- Field 8
    For: Weekends WinterDesignDay,  !- Field 9
    Until: 24:00,            !- Field 10
    0.0,                     !- Field 11
    For: Holidays AllOtherDays,  !- Field 12
    Until: 24:00,            !- Field 13
    0.0;                     !- Field 14

Schedule:Compact,
    MinOA_Sched,             !- Name
    fraction,                !- Schedule Type Limits Name
    Through: 12/31,          !- Field 1
    For: AllDays,            !- Field 2
    Until: 24:00,            !- Field 3
    1.0;                     !- Field 4

Schedule:Compact,
    Dual Zone Control Type Sched,  !- Name
    Control Type,            !- Schedule Type Limits Name
    Through: 12/31,          !- Field 1
    For: AllDays,            !- Field 2
    Until: 24:00,            !- Field 3
    4;                       !- Field 4

Schedule:Compact,
    Seasonal-Reset-Supply-Air-Temp-Sch,  !- Name
    Temperature,             !- Schedule Type Limits Name
    Through: 3/31,           !- Field 1
    For: AllDays,            !- Field 2
    Until: 24:00,            !- Field 3
    13.0,                    !- Field 4
    Through: 9/30,           !- Field 5
    For: AllDays,            !- Field 6
    Until: 24:00,            !- Field 7
    13.0,                    !- Field 8
    Through: 12/31,          !- Field 9
    For: AllDays,            !- Field 10
    Until: 24:00,            !- Field 11
    13.0;                    !- Field 12

Schedule:Compact,
    CW-Loop-Temp-Schedule,   !- Name
    Temperature,             !- Schedule Type Limits Name
    Through: 12/31,          !- Field 1
    For: AllDays,            !- Field 2
    Until: 24:00,            !- Field 3
    6.7;                     !- Field 4

Schedule:Compact,
    HW-Loop-Temp-Schedule,   !- Name
    Temperature,             !- Schedule Type Limits Name
    Through: 12/31,          !- Field 1
    For: AllDays,            !- Field 2
    Until: 24:00,            !- Field 3
    60.;                     !- Field 4

Schedule:Compact,
    Heating-Supply-Air-Temp-Sch,  !- Name
    Temperature,             !- Schedule Type Limits Name
    Through: 12/31,          !- Field 1
    For: AllDays,            !- Field 2
    Until: 24:00,            !- Field 3
    16.0;                    !- Field 4

Schedule:Compact,
    ACTIVITY_SCH,            !- Name
    Any Number,              !- Schedule Type Limits Name
    Through: 12/31,          !- Field 1
    For: AllDays,            !- Field 2
    Until: 24:00,            !- Field 3
    120.;                    !- Field 4

Schedule:Compact,
    WORK_EFF_SCH,            !- Name
    Fraction,                !- Schedule Type Limits Name
    Through: 12/31,          !- Field 1
    For: AllDays,            !- Field 2
    Until: 24:00,            !- Field 3
    0.0;                     !- Field 4

Schedule:Compact,
    AIR_VELO_SCH,            !- Name
    Any Number,              !- Schedule Type Limits Name
    Through: 12/31,          !- Field 1
    For: AllDays,            !- Field 2
    Until: 24:00,            !- Field 3
    0.2;                     !- Field 4

Schedule:Compact,
    CLOTHING_SCH,            !- Name
    Any Number,              !- Schedule Type Limits Name
    Through: 04/30,          !- Field 1
    For: AllDays,            !- Field 2
    Until: 24:00,            !- Field 3
    1.0,                     !- Field 4
    Through: 09/30,          !- Field 5
    For: AllDays,            !- Field 6
    Until: 24:00,            !- Field 7
    0.5,                     !- Field 8
    Through: 12/31,          !- Field 9
    For: AllDays,            !- Field 10
    Until: 24:00,            !- Field 11
    1.0;                     !- Field 12

Schedule:Compact,
    SHADING_SCH,             !- Name
    Any Number,              !- Schedule Type Limits Name
    Through: 12/31,          !- Field 1
    For: AllDays,            !- Field 2
    Until: 24:00,            !- Field 3
    0.0;                     !- Field 4

Schedule:Compact,
    Core_ZN Water Equipment Latent fract sched,  !- Name
    Fraction,                !- Schedule Type Limits Name
    Through: 12/31,          !- Field 1
    For: AllDays,            !- Field 2
    Until: 24:00,            !- Field 3
    0.05;                    !- Field 4

Schedule:Compact,
    Core_ZN Water Equipment Sensible fract sched,  !- Name
    Fraction,                !- Schedule Type Limits Name
    Through: 12/31,          !- Field 1
    For: AllDays,            !- Field 2
    Until: 24:00,            !- Field 3
    0.2;                     !- Field 4

Schedule:Compact,
    Core_ZN Water Equipment Temp Sched,  !- Name
    Temperature,             !- Schedule Type Limits Name
    Through: 12/31,          !- Field 1
    For: AllDays,            !- Field 2
    Until: 24:00,            !- Field 3
    48.8;                    !- Field 4

Schedule:Compact,
    Core_ZN Water Equipment Hot Supply Temp Sched,  !- Name
    Temperature,             !- Schedule Type Limits Name
    Through: 12/31,          !- Field 1
    For: AllDays,            !- Field 2
    Until: 24:00,            !- Field 3
    55;                      !- Field 4

Schedule:Compact,
    SHWSys1-Loop-Temp-Schedule,  !- Name
    Temperature,             !- Schedule Type Limits Name
    Through: 12/31,          !- Field 1
    For: AllDays,            !- Field 2
    Until: 24:00,            !- Field 3
    60;                      !- Field 4

Schedule:Compact,
    Supply-Temp-Schedule,  !- Name
    Temperature,             !- Schedule Type Limits Name
    Through: 12/31,          !- Field 1
    For: AllDays,            !- Field 2
    Until: 24:00,            !- Field 3
    12.8;                      !- Field 4

Schedule:Compact,
    SHWSys1 Water Heater Setpoint Temperature Schedule,  !- Name
    Temperature,             !- Schedule Type Limits Name
    Through: 12/31,          !- Field 1
    For: AllDays,            !- Field 2
    Until: 24:00,            !- Field 3
    60.00;                   !- Field 4

Schedule:Compact,
    SHWSys1 Water Heater Ambient Temperature Schedule,  !- Name
    Temperature,             !- Schedule Type Limits Name
    Through: 12/31,          !- Field 1
    For: AllDays,            !- Field 2
    Until: 24:00,            !- Field 3
    22.0;                    !- Field 4

Schedule:Compact,
    Exterior_lighting_schedule_a,  !- Name
    fraction,                !- Schedule Type Limits Name
    Through:12/31,           !- Field 1
    For:AllDays,             !- Field 2
    Until: 06:00,            !- Field 3
    0,                       !- Field 4
    Until: 24:00,            !- Field 5
    1;                       !- Field 6

Schedule:Compact,
    Exterior_lighting_schedule_b,  !- Name
    fraction,                !- Schedule Type Limits Name
    Through:12/31,           !- Field 1
    For:AllDays,             !- Field 2
    Until: 06:00,            !- Field 3
    0.7,                     !- Field 4
    Until: 24:00,            !- Field 5
    1;                       !- Field 6

Schedule:Compact,
    Exterior_lighting_schedule_a_IECC2015,  !- Name
    fraction,                !- Schedule Type Limits Name
    Through:12/31,           !- Field 1
    For:Weekdays SummerDesignDay,  !- Field 2
    Until: 07:00,            !- Field 3
    0,                       !- Field 4
    Until: 19:00,            !- Field 5
    1,                       !- Field 6
    Until: 24:00,            !- Field 7
    0,                       !- Field 8
    For:Saturdays,           !- Field 9
    Until: 24:00,            !- Field 10
    0,                       !- Field 11
    For:AllOtherDays,        !- Field 12
    Until: 24:00,            !- Field 13
    0;                       !- Field 14

Schedule:Compact,
    Exterior_lighting_schedule_b_2016,  !- Name
    fraction,                !- Schedule Type Limits Name
    Through:12/31,           !- Field 1
    For:AllDays,             !- Field 2
    Until: 06:00,            !- Field 3
    0.5,                     !- Field 4
    Until: 24:00,            !- Field 5
    1;                       !- Field 6

Schedule:Compact,
    Exterior_lighting_schedule_c_2016,  !- Name
    fraction,                !- Schedule Type Limits Name
    Through:12/31,           !- Field 1
    For:AllDays,             !- Field 2
    Until: 06:00,            !- Field 3
    0.5,                     !- Field 4
    Until: 19:00,            !- Field 5
    1,                       !- Field 6
    Until: 24:00,            !- Field 7
    0.5;                     !- Field 8

Schedule:Compact,
    FanAndCoilAvailSched,    !- Name
    Fraction,                !- Schedule Type Limits Name
    Through: 3/31,           !- Field 1
    For: AllDays,            !- Field 2
    Until: 24:00,            !- Field 3
    1.0,                     !- Field 4
    Through: 9/30,           !- Field 5
    For: WeekDays,           !- Field 6
    Until: 7:00,             !- Field 7
    0.0,                     !- Field 8
    Until: 17:00,            !- Field 9
    1.0,                     !- Field 10
    Until: 24:00,            !- Field 11
    0.0,                     !- Field 12
    For: WinterDesignDay,    !- Field 13
    Until: 24:00,            !- Field 14
    1.0,                     !- Field 15
    For: SummerDesignDay,    !- Field 16
    Until: 7:00,             !- Field 17
    0.0,                     !- Field 18
    Until: 17:00,            !- Field 19
    1.0,                     !- Field 20
    Until: 24:00,            !- Field 21
    0.0,                     !- Field 22
    For: AllOtherDays,       !- Field 23
    Until: 24:00,            !- Field 24
    0.0,                     !- Field 25
    Through: 12/31,          !- Field 26
    For: AllDays,            !- Field 27
    Until: 24:00,            !- Field 28
    1.0;                     !- Field 29

Schedule:Compact,
    OutdoorAirAvailSched,    !- Name
    Fraction,                !- Schedule Type Limits Name
    Through: 3/31,           !- Field 1
    For: AllDays,            !- Field 2
    Until: 24:00,            !- Field 3
    1.0,                     !- Field 4
    Through: 9/30,           !- Field 5
    For: WeekDays,           !- Field 6
    Until: 7:00,             !- Field 7
    0.0,                     !- Field 8
    Until: 17:00,            !- Field 9
    1.0,                     !- Field 10
    Until: 24:00,            !- Field 11
    0.0,                     !- Field 12
    For: SummerDesignDay WinterDesignDay,  !- Field 13
    Until: 24:00,            !- Field 14
    0.0,                     !- Field 15
    For: AllOtherDays,       !- Field 16
    Until: 24:00,            !- Field 17
    0.0,                     !- Field 18
    Through: 12/31,          !- Field 19
    For: AllDays,            !- Field 20
    Until: 24:00,            !- Field 21
    1.0;                     !- Field 22

Schedule:Compact,
    OAFractionSched,         !- Name
    Fraction,                !- Schedule Type Limits Name
    Through: 12/31,          !- Field 1
    For: AllDays,            !- Field 2
    Until: 7:00,             !- Field 3
    0.0,                     !- Field 4
    Until: 17:00,            !- Field 5
    1.0,                     !- Field 6
    Until: 24:00,            !- Field 7
    0.0;                     !- Field 8

Schedule:Compact,
    FanModeSchedule,         !- Name
    Fraction,                !- Schedule Type Limits Name
    Through: 12/31,          !- Field 1
    For: AllDays,            !- Field 2
    Until: 7:00,             !- Field 3
    0.0,                     !- Field 4
    Until: 17:00,            !- Field 5
    1.0,                     !- Field 6
    Until: 24:00,            !- Field 7
    0.0;                     !- Field 8


Schedule:Compact,
    Night Cycle Schd 1,      !- Name
    on/off,                  !- Schedule Type Limits Name
    Through: 12/31,          !- Field 1
    For: Weekdays SummerDesignDay,  !- Field 2
    Until: 06:00,            !- Field 3
    1,                       !- Field 4
    Until: 19:00,            !- Field 5
    0,                       !- Field 6
    Until: 24:00,            !- Field 7
    1,                       !- Field 8
    For: Weedends WinterDesignDay,  !- Field 9
    Until: 24:00,            !- Field 10
    1,                       !- Field 11
    For: Holidays AllOtherDays,  !- Field 12
    Until: 24:00,            !- Field 13
    1;                       !- Field 14

Schedule:Compact,
    Night Cycle Schd 2,      !- Name
    on/off,                  !- Schedule Type Limits Name
    Through: 12/31,          !- Field 1
    For: Weekdays SummerDesignDay,  !- Field 2
    Until: 06:00,            !- Field 3
    1,                       !- Field 4
    Until: 19:00,            !- Field 5
    0,                       !- Field 6
    Until: 24:00,            !- Field 7
    1,                       !- Field 8
    For: Weedends WinterDesignDay,  !- Field 9
    Until: 24:00,            !- Field 10
    1,                       !- Field 11
    For: Holidays AllOtherDays,  !- Field 12
    Until: 24:00,            !- Field 13
    1;                       !- Field 14

Schedule:Compact,
    Night Cycle Schd 3,      !- Name
    on/off,                  !- Schedule Type Limits Name
    Through: 12/31,          !- Field 1
    For: Weekdays SummerDesignDay,  !- Field 2
    Until: 06:00,            !- Field 3
    1,                       !- Field 4
    Until: 19:00,            !- Field 5
    0,                       !- Field 6
    Until: 24:00,            !- Field 7
    1,                       !- Field 8
    For: Weedends WinterDesignDay,  !- Field 9
    Until: 24:00,            !- Field 10
    1,                       !- Field 11
    For: Holidays AllOtherDays,  !- Field 12
    Until: 24:00,            !- Field 13
    1;                       !- Field 14

Schedule:Compact,
    Night Cycle Schd 4,      !- Name
    on/off,                  !- Schedule Type Limits Name
    Through: 12/31,          !- Field 1
    For: Weekdays SummerDesignDay,  !- Field 2
    Until: 06:00,            !- Field 3
    1,                       !- Field 4
    Until: 19:00,            !- Field 5
    0,                       !- Field 6
    Until: 24:00,            !- Field 7
    1,                       !- Field 8
    For: Weedends WinterDesignDay,  !- Field 9
    Until: 24:00,            !- Field 10
    1,                       !- Field 11
    For: Holidays AllOtherDays,  !- Field 12
    Until: 24:00,            !- Field 13
    1;                       !- Field 14

Schedule:Compact,
    Night Cycle Schd 5,      !- Name
    on/off,                  !- Schedule Type Limits Name
    Through: 12/31,          !- Field 1
    For: Weekdays SummerDesignDay,  !- Field 2
    Until: 06:00,            !- Field 3
    1,                       !- Field 4
    Until: 19:00,            !- Field 5
    0,                       !- Field 6
    Until: 24:00,            !- Field 7
    1,                       !- Field 8
    For: Weedends WinterDesignDay,  !- Field 9
    Until: 24:00,            !- Field 10
    1,                       !- Field 11
    For: Holidays AllOtherDays,  !- Field 12
    Until: 24:00,            !- Field 13
    1;                       !- Field 14


{% include "MinOAFraction" %}


!
!-   ===========  ALL OBJECTS IN CLASS: MATERIAL:REGULAR ===========
 
{% include "wall_roof" %} 
 
  Material,
    Std Wood 6inch,          !- Name
    MediumSmooth,            !- Roughness
    0.15,                    !- Thickness {m}
    0.12,                    !- Conductivity {W/m-K}
    540.0000,                !- Density {kg/m3}
    1210,                    !- Specific Heat {J/kg-K}
    0.9000000,               !- Thermal Absorptance
    0.7000000,               !- Solar Absorptance
    0.7000000;               !- Visible Absorptance
 
  Material,
    AC02 Acoustic Ceiling,   !- Name
    MediumSmooth,            !- Roughness
    1.2700000E-02,           !- Thickness {m}
    5.7000000E-02,           !- Conductivity {W/m-K}
    288.0000,                !- Density {kg/m3}
    1339.000,                !- Specific Heat {J/kg-K}
    0.9000000,               !- Thermal Absorptance
    0.7000000,               !- Solar Absorptance
    0.2000000;               !- Visible Absorptance
 
  Material,
    F07 25mm stucco,         !- Name
    Smooth,                  !- Roughness
    0.0254,                  !- Thickness {m}
    0.72,                    !- Conductivity {W/m-K}
    1856,                    !- Density {kg/m3}
    840,                     !- Specific Heat {J/kg-K}
    0.9,                     !- Thermal Absorptance
    0.7,                     !- Solar Absorptance
    0.7;                     !- Visible Absorptance
 
  Material,
    F08 Metal surface,       !- Name
    Smooth,                  !- Roughness
    0.0008,                  !- Thickness {m}
    45.28,                   !- Conductivity {W/m-K}
    7824,                    !- Density {kg/m3}
    500;                     !- Specific Heat {J/kg-K}

  Material,
    F08 Metal roof surface,       !- Name
    Smooth,                  !- Roughness
    0.0008,                  !- Thickness {m}
    45.28,                   !- Conductivity {W/m-K}
    7824,                    !- Density {kg/m3}
    500,                     !- Specific Heat {J/kg-K}
    0.9,                     !- Absorptance:Thermal
    0.7;                     !- Absorptance:Solar
    
  Material,
    F12 Asphalt shingles,    !- Name
    VeryRough,               !- Roughness
    0.0032,                  !- Thickness {m}
    0.04,                    !- Conductivity {W/m-K}
    1120,                    !- Density {kg/m3}
    1260,                    !- Specific Heat {J/kg-K}
    0.9,                     !- Absorptance:Thermal
    0.7;                     !- Absorptance:Solar
 
  Material,
    F13 Built-up roofing,    !- Name
    Rough,                   !- Roughness
    0.0095,                  !- Thickness {m}
    0.16,                    !- Conductivity {W/m-K}
    1120,                    !- Density {kg/m3}
    1460,                    !- Specific Heat {J/kg-K}
    0.9,                     !- Absorptance:Thermal
    0.7;                     !- Absorptance:Solar

  Material,
    G01 13mm gypsum board,   !- Name
    Smooth,                  !- Roughness
    0.0127,                  !- Thickness {m}
    0.1600,                  !- Conductivity {W/m-K}
    800.0000,                !- Density {kg/m3}
    1090.0000,               !- Specific Heat {J/kg-K}
    0.9000,                  !- Absorptance:Thermal
    0.7000,                  !- Absorptance:Solar
    0.5000;                  !- Absorptance:Visible
    
  Material,
    G01 16mm gypsum board,   !- Name
    MediumSmooth,            !- Roughness
    0.0159,                  !- Thickness {m}
    0.16,                    !- Conductivity {W/m-K}
    800,                     !- Density {kg/m3}
    1090;                    !- Specific Heat {J/kg-K}
 
  Material,
    G02 16mm plywood,        !- Name
    Smooth,                  !- Roughness
    0.0159,                  !- Thickness {m}
    0.12,                    !- Conductivity {W/m-K}
    544,                     !- Density {kg/m3}
    1210;                    !- Specific Heat {J/kg-K}
 
  Material,
    M14 150mm heavyweight concrete roof,  !- Name
    MediumRough,             !- Roughness
    0.1524,                  !- Thickness {m}
    2.31,                    !- Conductivity {W/m-K}
    2322,       !- Density {kg/m3}
    832;           !- Specific Heat {J/kg-K}


  Material,
    100mm Normalweight concrete wall,  !- Name  - based on 90.1-2004 Appendix-Table A3-1B
    MediumRough,             !- Roughness
    0.1016,                  !- Thickness {m}
    2.31,                    !- Conductivity {W/m-K}
    2322,       !- Density {kg/m3}
    832;           !- Specific Heat {J/kg-K}


  Material,
    200mm Normalweight concrete wall,  !- Name  - based on 90.1-2004 Appendix-Table A3-1B
    MediumRough,             !- Roughness
    0.2032,                  !- Thickness {m}
    2.31,                    !- Conductivity {W/m-K}
    2322,       !- Density {kg/m3}
    832;           !- Specific Heat {J/kg-K}

  Material,
    100mm Normalweight concrete floor,  !- Name  - based on 90.1-2004 Appendix-Table A3-1B
    MediumRough,             !- Roughness
    0.1016,                  !- Thickness {m}
    2.31,                    !- Conductivity {W/m-K}
    2322,       !- Density {kg/m3}
    832;           !- Specific Heat {J/kg-K}

  Material,
    150mm Normalweight concrete floor,  !- Name  - based on 90.1-2004 Appendix-Table A3-1B
    MediumRough,             !- Roughness
    0.1524,                  !- Thickness {m}
    2.31,                    !- Conductivity {W/m-K}
    2322,       !- Density {kg/m3}
    832;           !- Specific Heat {J/kg-K}

  Material,
    200mm Normalweight concrete floor,  !- Name  - based on 90.1-2004 Appendix-Table A3-1B
    MediumRough,             !- Roughness
    0.2032,                  !- Thickness {m}
    2.31,                    !- Conductivity {W/m-K}
    2322,       !- Density {kg/m3}
    832;           !- Specific Heat {J/kg-K}

  Material,
    M10 200mm concrete block wall,  !- Name
    MediumRough,             !- Roughness
    0.2032,                  !- Thickness {m}
    0.72,                    !- Conductivity {W/m-K}
    800,       !- Density {kg/m3}
    832;           !- Specific Heat {J/kg-K}

  Material,
    M10 200mm concrete block basement wall,  !- Name
    MediumRough,             !- Roughness
    0.2032,                  !- Thickness {m}
    1.326,                    !- Conductivity {W/m-K}
    1842,       !- Density {kg/m3}
    912;           !- Specific Heat {J/kg-K}


  Material:NoMass,
    CP02 CARPET PAD,         !- Name
    VeryRough,               !- Roughness
    0.21648,                 !- Thermal Resistance {m2-K/W}
    0.9,                     !- Thermal Absorptance
    0.7,                     !- Solar Absorptance
    0.8;                     !- Visible Absorptance

 
  Material:NoMass,
    Air_Wall_Material,       !- Name
    Rough,                   !- Roughness
    0.2079491,               !- Thermal Resistance {m2-K/W}
    0.9,                     !- Thermal Absorptance
    0.7;                     !- Solar Absorptance


  Material:NoMass,
    Res_Roof_Insulation,  !- Name
    MediumSmooth,            !- Roughness
    0.0299387330245182,
            !- Thermal Resistance {m2-K/W}
    0.9,                     !- Thermal Absorptance
    0.7,                     !- Solar Absorptance
    0.7;                     !- Visible Absorptance

  Material:NoMass,
    Semiheated_Roof_Insulation,  !- Name
    MediumSmooth,            !- Roughness
    0.0299387330245182,
            !- Thermal Resistance {m2-K/W}
    0.9,                     !- Thermal Absorptance
    0.7,                     !- Solar Absorptance
    0.7;                     !- Visible Absorptance


  Material:NoMass,
    Res_Exterior_Wall_Insulation,  !- Name
    MediumSmooth,            !- Roughness
    0.0299387330245182,
            !- Thermal Resistance {m2-K/W}
    0.9,                     !- Thermal Absorptance
    0.7,                     !- Solar Absorptance
    0.7;                     !- Visible Absorptance

  Material:NoMass,
    Semiheated_Exterior_Wall_Insulation,  !- Name
    MediumSmooth,            !- Roughness
    0.0299387330245182,
            !- Thermal Resistance {m2-K/W}
    0.9,                     !- Thermal Absorptance
    0.7,                     !- Solar Absorptance
    0.7;                     !- Visible Absorptance



  Material:NoMass,
    Nonres_Floor_Insulation,  !- Name
    MediumSmooth,            !- Roughness

    0.0299387330245182,
            !- Thermal Resistance {m2-K/W}
    0.9,                     !- Thermal Absorptance
    0.7,                     !- Solar Absorptance
    0.7;                     !- Visible Absorptance

  Material:NoMass,
    Res_Floor_Insulation,  !- Name
    MediumSmooth,            !- Roughness

    0.0299387330245182,
            !- Thermal Resistance {m2-K/W}
    0.9,                     !- Thermal Absorptance
    0.7,                     !- Solar Absorptance
    0.7;                     !- Visible Absorptance

  Material:NoMass,
    Semiheated_Floor_Insulation,  !- Name
    MediumSmooth,            !- Roughness

    0.0299387330245182,
            !- Thermal Resistance {m2-K/W}
    0.9,                     !- Thermal Absorptance
    0.7,                     !- Solar Absorptance
    0.7;                     !- Visible Absorptance

  Material:NoMass,
    Std Opaque Door Panel,  !- Name
    MediumRough,             !- Roughness
    0.123456790123457,  !- (corresponds to default RSI-0.12327 or R-0.7) Thermal Resistance {m2-K/W}
    0.9,                     !- Thermal Absorptance
    0.7,                     !- Solar Absorptance
    0.7;                     !- Visible Absorptance

{% include "window" %} 

!-   ===========  ALL OBJECTS IN CLASS: CONSTRUCTION ===========

  Construction,
    InteriorFurnishings,     !- Name
    Std Wood 6inch;          !- Outside Layer
 
  Construction,
    Air_Wall,                !- Name
    Air_Wall_Material;       !- Outside Layer

  Construction,
    DropCeiling,             !- Name
    AC02 Acoustic Ceiling;   !- Outside Layer
   
  Construction,
    OpaqueDoor,   !- Name
    Std Opaque Door Panel;  !- Outside Layer

  Construction,
    AtticRoofDeck,           !- Name
    F12 Asphalt shingles,    !- Outside Layer
    G02 16mm plywood;        !- Layer 2
 
  Construction,
    int_wall,                !- Name
    G01 13mm gypsum board,   !- Outside Layer
    G01 13mm gypsum board;   !- Layer 2
 
  Construction,
    ext_slab_8in_with_carpet,!- Name
    200mm Normalweight concrete floor,  !- Outside Layer
    CP02 CARPET PAD;         !- Layer 2
 
  Construction,
    ext_slab_8in,            !- Name
    200mm Normalweight concrete floor;  !- Outside Layer
 
  Construction,
    ext_slab_6in_with_carpet,!- Name
    150mm Normalweight concrete floor,  !- Outside Layer
    CP02 CARPET PAD;         !- Layer 2
 
  Construction,
    ext_slab_6in,            !- Name
    150mm Normalweight concrete floor;  !- Outside Layer
 
  Construction,
    int_slab_floor,          !- Name
    100mm Normalweight concrete floor,  !- Outside Layer
    CP02 CARPET PAD;         !- Layer 2
 
  Construction,
    int_slab_ceiling,        !- Name
    CP02 CARPET PAD,         !- Outside Layer
    100mm Normalweight concrete floor;  !- Layer 2
 
  Construction,
    basement_wall,           !- Name
    M10 200mm concrete block basement wall;  !- Outside Layer
 
  Construction,
    int_wood_floor,          !- Name
    AC02 Acoustic Ceiling,   !- Outside Layer
    G02 16mm plywood,        !- Layer 2
    CP02 CARPET PAD;         !- Layer 3
 
  Construction,
    ext_soffit_floor,          !- Name
    G02 16mm plywood;   !- Outside Layer
 
  Construction,
    nonres_roof,                   !- Name
        Nonres_Roof_Insulation,   !- Outside Layer
[...]
    12.77778,                !- Minimum Value of x
    23.88889,                !- Maximum Value of x
    23.88889,                !- Minimum Value of y
    46.11111,                !- Maximum Value of y
    ,                        !- Minimum Curve Output
    ,                        !- Maximum Curve Output
    Temperature,             !- Input Unit Type for X
    Temperature,             !- Input Unit Type for Y
    Dimensionless;           !- Output Unit Type

Curve:Biquadratic,
    HPACCoolCapFT Speed 1,   !- Name
    0.476428E+00,            !- Coefficient1 Constant
    0.401147E-01,            !- Coefficient2 x
    0.226411E-03,            !- Coefficient3 x**2
    -0.827136E-03,           !- Coefficient4 y
    -0.732240E-05,           !- Coefficient5 y**2
    -0.446278E-03,           !- Coefficient6 x*y
    12.77778,                !- Minimum Value of x
    23.88889,                !- Maximum Value of x
    23.88889,                !- Minimum Value of y
    46.11111,                !- Maximum Value of y
    ,                        !- Minimum Curve Output
    ,                        !- Maximum Curve Output
    Temperature,             !- Input Unit Type for X
    Temperature,             !- Input Unit Type for Y
    Dimensionless;           !- Output Unit Type

Curve:Biquadratic,
    HPACCoolCapFT Speed 2,   !- Name
    0.476428E+00,            !- Coefficient1 Constant
    0.401147E-01,            !- Coefficient2 x
    0.226411E-03,            !- Coefficient3 x**2
    -0.827136E-03,           !- Coefficient4 y
    -0.732240E-05,           !- Coefficient5 y**2
    -0.446278E-03,           !- Coefficient6 x*y
    12.77778,                !- Minimum Value of x
    23.88889,                !- Maximum Value of x
    23.88889,                !- Minimum Value of y
    46.11111,                !- Maximum Value of y
    ,                        !- Minimum Curve Output
    ,                        !- Maximum Curve Output
    Temperature,             !- Input Unit Type for X
    Temperature,             !- Input Unit Type for Y
    Dimensionless;           !- Output Unit Type

Curve:Biquadratic,
    HPACCoolCapFT Speed 3,   !- Name
    0.476428E+00,            !- Coefficient1 Constant
    0.401147E-01,            !- Coefficient2 x
    0.226411E-03,            !- Coefficient3 x**2
    -0.827136E-03,           !- Coefficient4 y
    -0.732240E-05,           !- Coefficient5 y**2
    -0.446278E-03,           !- Coefficient6 x*y
    12.77778,                !- Minimum Value of x
    23.88889,                !- Maximum Value of x
    23.88889,                !- Minimum Value of y
    46.11111,                !- Maximum Value of y
    ,                        !- Minimum Curve Output
    ,                        !- Maximum Curve Output
    Temperature,             !- Input Unit Type for X
    Temperature,             !- Input Unit Type for Y
    Dimensionless;           !- Output Unit Type

Curve:Biquadratic,
    HPACCoolCapFT Speed 4,   !- Name
    0.476428E+00,            !- Coefficient1 Constant
    0.401147E-01,            !- Coefficient2 x
    0.226411E-03,            !- Coefficient3 x**2
    -0.827136E-03,           !- Coefficient4 y
    -0.732240E-05,           !- Coefficient5 y**2
    -0.446278E-03,           !- Coefficient6 x*y
    12.77778,                !- Minimum Value of x
    23.88889,                !- Maximum Value of x
    23.88889,                !- Minimum Value of y
    46.11111,                !- Maximum Value of y
    ,                        !- Minimum Curve Output
    ,                        !- Maximum Curve Output
    Temperature,             !- Input Unit Type for X
    Temperature,             !- Input Unit Type for Y
    Dimensionless;           !- Output Unit Type




! operation condition varies
Curve:Biquadratic,
    HAPCCoolWHFT Speed 1,    !- Name
    1.0,                     !- Coefficient1 Constant
    0.0,                     !- Coefficient2 x
    0.0,                     !- Coefficient3 x**2
    0.0,                     !- Coefficient4 y
    0.0,                     !- Coefficient5 y**2
    0.0,                     !- Coefficient6 x*y
    0,                       !- Minimum Value of x
    50,                      !- Maximum Value of x
    0,                       !- Minimum Value of y
    50,                      !- Maximum Value of y
    ,                        !- Minimum Curve Output
    ,                        !- Maximum Curve Output
    Temperature,             !- Input Unit Type for X
    Temperature,             !- Input Unit Type for Y
    Dimensionless;           !- Output Unit Type

! operation condition varies
Curve:Biquadratic,
    HAPCCoolWHFT Speed 2,    !- Name
    1.0,                     !- Coefficient1 Constant
    0.0,                     !- Coefficient2 x
    0.0,                     !- Coefficient3 x**2
    0.0,                     !- Coefficient4 y
    0.0,                     !- Coefficient5 y**2
    0.0,                     !- Coefficient6 x*y
    0,                       !- Minimum Value of x
    50,                      !- Maximum Value of x
    0,                       !- Minimum Value of y
    50,                      !- Maximum Value of y
    ,                        !- Minimum Curve Output
    ,                        !- Maximum Curve Output
    Temperature,             !- Input Unit Type for X
    Temperature,             !- Input Unit Type for Y
    Dimensionless;           !- Output Unit Type

! operation condition varies
Curve:Biquadratic,
    HAPCCoolWHFT Speed 3,    !- Name
    1.0,                     !- Coefficient1 Constant
    0.0,                     !- Coefficient2 x
    0.0,                     !- Coefficient3 x**2
    0.0,                     !- Coefficient4 y
    0.0,                     !- Coefficient5 y**2
    0.0,                     !- Coefficient6 x*y
    0,                       !- Minimum Value of x
    50,                      !- Maximum Value of x
    0,                       !- Minimum Value of y
    50,                      !- Maximum Value of y
    ,                        !- Minimum Curve Output
    ,                        !- Maximum Curve Output
    Temperature,             !- Input Unit Type for X
    Temperature,             !- Input Unit Type for Y
    Dimensionless;           !- Output Unit Type

! operation condition varies
Curve:Biquadratic,
    HAPCCoolWHFT Speed 4,    !- Name
    1.0,                     !- Coefficient1 Constant
    0.0,                     !- Coefficient2 x
    0.0,                     !- Coefficient3 x**2
    0.0,                     !- Coefficient4 y
    0.0,                     !- Coefficient5 y**2
    0.0,                     !- Coefficient6 x*y
    0,                       !- Minimum Value of x
    50,                      !- Maximum Value of x
    0,                       !- Minimum Value of y
    50,                      !- Maximum Value of y
    ,                        !- Minimum Curve Output
    ,                        !- Maximum Curve Output
    Temperature,             !- Input Unit Type for X
    Temperature,             !- Input Unit Type for Y
    Dimensionless;           !- Output Unit Type


!-   ===========  ALL OBJECTS IN CLASS: OUTPUT:VARIABLEDICTIONARY ===========

Output:VariableDictionary,
    regular,                 !- Key Field
    Name;                    !- Sort Option


!-   ===========  ALL OBJECTS IN CLASS: OUTPUT:TABLE:SUMMARYREPORTS ===========

!  Output:Variable,*,Site Outdoor Air Drybulb Temperature,Hourly;
!  Output:Variable,*,Site Outdoor Air Wetbulb Temperature,Hourly;
!  Output:Variable,HVACOperationSchd,Schedule Value,Hourly;
!
!  ! Outdoor Air Flow
!
!  Output:Variable,PSZ-AC:1_OAInlet Node,System Node VolFlowRate,Hourly;
!  Output:Variable,PSZ-AC:2_OAInlet Node,System Node VolFlowRate,Hourly;
!  Output:Variable,PSZ-AC:3_OAInlet Node,System Node VolFlowRate,Hourly;
!  Output:Variable,PSZ-AC:4_OAInlet Node,System Node VolFlowRate,Hourly;
!  Output:Variable,PSZ-AC:5_OAInlet Node,System Node VolFlowRate,Hourly;
!
!  ! Return Air Flow
!
!  Output:Variable,PSZ-AC:1 Supply Equipment Inlet Node,System Node VolFlowRate,Hourly;
!  Output:Variable,PSZ-AC:2 Supply Equipment Inlet Node,System Node VolFlowRate,Hourly;
!  Output:Variable,PSZ-AC:3 Supply Equipment Inlet Node,System Node VolFlowRate,Hourly;
!  Output:Variable,PSZ-AC:4 Supply Equipment Inlet Node,System Node VolFlowRate,Hourly;
!  Output:Variable,PSZ-AC:5 Supply Equipment Inlet Node,System Node VolFlowRate,Hourly;
!
!  ! Return Air Tdb
!
!  Output:Variable,PSZ-AC:1 Supply Equipment Inlet Node,System Node Temperature,Hourly;
!  Output:Variable,PSZ-AC:2 Supply Equipment Inlet Node,System Node Temperature,Hourly;
!  Output:Variable,PSZ-AC:3 Supply Equipment Inlet Node,System Node Temperature,Hourly;
!  Output:Variable,PSZ-AC:4 Supply Equipment Inlet Node,System Node Temperature,Hourly;
!  Output:Variable,PSZ-AC:5 Supply Equipment Inlet Node,System Node Temperature,Hourly;
!
!  ! Return Air Twb
!
!  Output:Variable,PSZ-AC:1 Supply Equipment Inlet Node,System Node Wetbulb Temperature,Hourly;
!  Output:Variable,PSZ-AC:2 Supply Equipment Inlet Node,System Node Wetbulb Temperature,Hourly;
!  Output:Variable,PSZ-AC:3 Supply Equipment Inlet Node,System Node Wetbulb Temperature,Hourly;
!  Output:Variable,PSZ-AC:4 Supply Equipment Inlet Node,System Node Wetbulb Temperature,Hourly;
!  Output:Variable,PSZ-AC:5 Supply Equipment Inlet Node,System Node Wetbulb Temperature,Hourly;
!
!  ! supply Air Flow
!
!  Output:Variable,PSZ-AC:1 Supply Equipment Outlet Node,System Node VolFlowRate,Hourly;
!  Output:Variable,PSZ-AC:2 Supply Equipment Outlet Node,System Node VolFlowRate,Hourly;
!  Output:Variable,PSZ-AC:3 Supply Equipment Outlet Node,System Node VolFlowRate,Hourly;
!  Output:Variable,PSZ-AC:4 Supply Equipment Outlet Node,System Node VolFlowRate,Hourly;
!  Output:Variable,PSZ-AC:5 Supply Equipment Outlet Node,System Node VolFlowRate,Hourly;
!
!  ! supply Air Tdb
!
!  Output:Variable,PSZ-AC:1 Supply Equipment Outlet Node,System Node Temperature,Hourly;
!  Output:Variable,PSZ-AC:2 Supply Equipment Outlet Node,System Node Temperature,Hourly;
!  Output:Variable,PSZ-AC:3 Supply Equipment Outlet Node,System Node Temperature,Hourly;
!  Output:Variable,PSZ-AC:4 Supply Equipment Outlet Node,System Node Temperature,Hourly;
!  Output:Variable,PSZ-AC:5 Supply Equipment Outlet Node,System Node Temperature,Hourly;
!
!  ! supply Air Twb
!
!  Output:Variable,PSZ-AC:1 Supply Equipment Outlet Node,System Node Wetbulb Temperature,Hourly;
!  Output:Variable,PSZ-AC:2 Supply Equipment Outlet Node,System Node Wetbulb Temperature,Hourly;
!  Output:Variable,PSZ-AC:3 Supply Equipment Outlet Node,System Node Wetbulb Temperature,Hourly;
!  Output:Variable,PSZ-AC:4 Supply Equipment Outlet Node,System Node Wetbulb Temperature,Hourly;
!  Output:Variable,PSZ-AC:5 Supply Equipment Outlet Node,System Node Wetbulb Temperature,Hourly;
!
!  ! Coil Load
!
!  Output:Variable,*,Air System Cooling Coil Total Cooling Energy,Hourly;
!  Output:Variable,*,Air System Heating Coil Total Heating Energy,Hourly;
!
!  ! SHW
!
!  Output:Variable,*,Water Heater Heating Rate,Hourly;
!
!  ! Fan and Pump
!
!  Output:Variable,*,Fan Electric Power,hourly; !- HVAC Average W
!  Output:Variable,*,Pump Electric Power,hourly; !- HVAC Average W
!  Output:Variable,*,Humidifier Electric Power,hourly; !- HVAC Average W
!
!  ! Utility and Submeter
!
!    Output:Meter,Electricity:Facility,Hourly;
!    Output:Meter,Gas:Facility,Hourly;
!    Output:Meter,InteriorLights:Electricity,Hourly;
!    Output:Meter,ExteriorLights:Electricity,Hourly;
!    Output:Meter,InteriorEquipment:Electricity,Hourly;
!    Output:Meter,ExteriorEquipment:Electricity,Hourly;
!    Output:Meter,Fans:Electricity,Hourly;
!    Output:Meter,Pumps:Electricity,Hourly;
!    Output:Meter,Heating:Electricity,Hourly;
!    Output:Meter,Cooling:Electricity,Hourly;
!    Output:Meter,HeatRejection:Electricity,Hourly;
!    Output:Meter,Humidifier:Electricity,Hourly;
!    Output:Meter,HeatRecovery:Electricity,Hourly;
!    Output:Meter,DHW:Electricity,Hourly;
!    Output:Meter,Cogeneration:Electricity,Hourly;
!    Output:Meter,Refrigeration:Electricity,Hourly;
!    Output:Meter,WaterSystems:Electricity,Hourly;
!
!    Output:Meter,InteriorLights:Gas,Hourly;
!    Output:Meter,ExteriorLights:Gas,Hourly;
!    Output:Meter,InteriorEquipment:Gas,Hourly;
!    Output:Meter,ExteriorEquipment:Gas,Hourly;
!    Output:Meter,Fans:Gas,Hourly;
!    Output:Meter,Pumps:Gas,Hourly;
!    Output:Meter,Heating:Gas,Hourly;
!    Output:Meter,Cooling:Gas,Hourly;
!    Output:Meter,HeatRejection:Gas,Hourly;
!    Output:Meter,Humidifier:Gas,Hourly;
!    Output:Meter,HeatRecovery:Gas,Hourly;
!    Output:Meter,DHW:Gas,Hourly;
!    Output:Meter,Cogeneration:Gas,Hourly;
!    Output:Meter,Refrigeration:Gas,Hourly;
!    Output:Meter,WaterSystems:Gas,Hourly;
Output:Table:SummaryReports,
    AllSummaryAndMonthly;    !- Report 1 Name


!-   ===========  ALL OBJECTS IN CLASS: OUTPUT:TABLE:MONTHLY ===========

Output:Table:Monthly,
    NameHolderMonthlySummary TaskPurpose ProgressIndicator,  !- Name
    3,                       !- Digits After Decimal
    Site Outdoor Air Drybulb,!- Variable or Meter 1 Name
    SumOrAverage,            !- Aggregation Type for Variable or Meter 1
    Heating:Gas,             !- Variable or Meter 2 Name
    SumOrAverage;            !- Aggregation Type for Variable or Meter 2

Output:Table:Monthly,
    NameHolderMonthlySummary CodeName ASHRAE901,  !- Name
    3,                       !- Digits After Decimal
    Site Outdoor Air Drybulb,!- Variable or Meter 1 Name
    SumOrAverage,            !- Aggregation Type for Variable or Meter 1
    Heating:Gas,             !- Variable or Meter 2 Name
    SumOrAverage;            !- Aggregation Type for Variable or Meter 2

Output:Table:Monthly,
    NameHolderMonthlySummary CodeYear 2019,  !- Name
    3,                       !- Digits After Decimal
    Site Outdoor Air Drybulb,!- Variable or Meter 1 Name
    SumOrAverage,            !- Aggregation Type for Variable or Meter 1
    Heating:Gas,             !- Variable or Meter 2 Name
    SumOrAverage;            !- Aggregation Type for Variable or Meter 2

Output:Table:Monthly,
    NameHolderMonthlySummary CodeAmendment NoneAmend,  !- Name
    3,                       !- Digits After Decimal
    Site Outdoor Air Drybulb,!- Variable or Meter 1 Name
    SumOrAverage,            !- Aggregation Type for Variable or Meter 1
    Heating:Gas,             !- Variable or Meter 2 Name
    SumOrAverage;            !- Aggregation Type for Variable or Meter 2

Output:Table:Monthly,
    NameHolderMonthlySummary PrototypeName OfficeSmall,  !- Name
    3,                       !- Digits After Decimal
    Site Outdoor Air Drybulb,!- Variable or Meter 1 Name
    SumOrAverage,            !- Aggregation Type for Variable or Meter 1
    Heating:Gas,             !- Variable or Meter 2 Name
    SumOrAverage;            !- Aggregation Type for Variable or Meter 2

Output:Table:Monthly,
    NameHolderMonthlySummary TaskScope National,  !- Name
    3,                       !- Digits After Decimal
    Site Outdoor Air Drybulb,!- Variable or Meter 1 Name
    SumOrAverage,            !- Aggregation Type for Variable or Meter 1
    Heating:Gas,             !- Variable or Meter 2 Name
    SumOrAverage;            !- Aggregation Type for Variable or Meter 2

Output:Table:Monthly,
    NameHolderMonthlySummary State National,  !- Name
    3,                       !- Digits After Decimal
    Site Outdoor Air Drybulb,!- Variable or Meter 1 Name
    SumOrAverage,            !- Aggregation Type for Variable or Meter 1
    Heating:Gas,             !- Variable or Meter 2 Name
    SumOrAverage;            !- Aggregation Type for Variable or Meter 2

Output:Table:Monthly,
    NameHolderMonthlySummary ClimateZone 4A,  !- Name
    3,                       !- Digits After Decimal
    Site Outdoor Air Drybulb,!- Variable or Meter 1 Name
    SumOrAverage,            !- Aggregation Type for Variable or Meter 1
    Heating:Gas,             !- Variable or Meter 2 Name
    SumOrAverage;            !- Aggregation Type for Variable or Meter 2

Output:Table:Monthly,
    NameHolderMonthlySummary RepresentCity USA_NY_NewYork,  !- Name
    3,                       !- Digits After Decimal
    Site Outdoor Air Drybulb,!- Variable or Meter 1 Name
    SumOrAverage,            !- Aggregation Type for Variable or Meter 1
    Heating:Gas,             !- Variable or Meter 2 Name
    SumOrAverage;            !- Aggregation Type for Variable or Meter 2


!-   ===========  ALL OBJECTS IN CLASS: OUTPUTCONTROL:TABLE:STYLE ===========

OutputControl:Table:Style,
    CommaAndHTML;            !- Column Separator


!-   ===========  ALL OBJECTS IN CLASS: OUTPUTCONTROL:REPORTINGTOLERANCES ===========

OutputControl:ReportingTolerances,
    0.556,                   !- Tolerance for Time Heating Setpoint Not Met {deltaC}
    0.556;                   !- Tolerance for Time Cooling Setpoint Not Met {deltaC}


!-   ===========  ALL OBJECTS IN CLASS: OUTPUT:VARIABLE ===========

Output:Variable,
    *,                       !- Key Value
    Zone Mean Air Temperature,  !- Variable Name
    Timestep;                !- Reporting Frequency

Output:Variable,
    *,                       !- Key Value
    Cooling Coil Total Cooling Rate ,  !- Variable Name
    Timestep;                !- Reporting Frequency

Output:Variable,
    *,                       !- Key Value
    Heating Coil Heating Rate ,  !- Variable Name
    Timestep;                !- Reporting Frequency

Output:Variable,
    *,                       !- Key Value
    Unitary System DX Coil Speed Level ,  !- Variable Name
    Timestep;                !- Reporting Frequency

Output:Variable,
    *,                       !- Key Value
    Unitary System Compressor Part Load Ratio ,  !- Variable Name
    Timestep;                !- Reporting Frequency

Output:Variable,
    *,                       !- Key Value
    Fan Electric Power ,     !- Variable Name
    Timestep;                !- Reporting Frequency

Output:Variable,
    *,                       !- Key Value
    Fan Air Mass Flow Rate , !- Variable Name
    Timestep;                !- Reporting Frequency

Output:Variable,
    *,                       !- Key Value
    Fan2MaxGlobal,           !- Variable Name
    Timestep;                !- Reporting Frequency

Output:Variable,
    *,                       !- Key Value
    Unitary System Total Heating Rate ,  !- Variable Name
    Timestep;                !- Reporting Frequency

Output:Variable,
    *,                       !- Key Value
    Fan1MaxGlobal,           !- Variable Name
    Timestep;                !- Reporting Frequency

Output:Variable,
    *,                       !- Key Value
    Fan3MaxGlobal,           !- Variable Name
    Timestep;                !- Reporting Frequency

Output:Variable,
    *,                       !- Key Value
    Fan4MaxGlobal,           !- Variable Name
    Timestep;                !- Reporting Frequency

Output:Variable,
    *,                       !- Key Value
    Fan5MaxGlobal,           !- Variable Name
    Timestep;                !- Reporting Frequency

Output:Variable,
    *,                       !- Key Value
    Heating Coil Electric Power ,  !- Variable Name
    Hourly;                  !- Reporting Frequency

Output:Variable,
    *,                       !- Key Value
    Heating Coil Gas Rate,   !- Variable Name
    Hourly;                  !- Reporting Frequency


!-   ===========  ALL OBJECTS IN CLASS: OUTPUT:METER:METERFILEONLY ===========

Output:Meter:MeterFileOnly,
    Electricity:Facility,    !- Key Name
    Hourly;                  !- Reporting Frequency

Output:Meter:MeterFileOnly,
    ElectricityNet:Facility, !- Key Name
    Hourly;                  !- Reporting Frequency

Output:Meter:MeterFileOnly,
    Gas:Facility,            !- Key Name
    Hourly;                  !- Reporting Frequency
